**  BEGIN USER HEADER
**  ABAQUS INPUT FILE: Healthy_QuasiStatic.inp
**  FILE CREATED ON: 18-Jan-2024 16:41:41 USING Write_Abaqus_File.m 
**  FILE CREATED BY: ch49693
**  STUDY NUMBER: 9
**  ITERATION: 298
**  MESH FILE: OCS13_mesh_fine.inp
**  END OF USER HEADER
**  
**  BEGIN MODEL DATA
*PART, NAME=Leaflet 
*NODE, NSET=Leaflet_Nodes 
1,-8.164562e+00,8.880193e+00,1.297155e+00 
2,-1.406807e+01,-8.320672e+00,3.710270e-01 
3,-8.468843e+00,8.631455e+00,1.378857e+00 
4,-8.767784e+00,8.372503e+00,1.447496e+00 
5,-9.060809e+00,8.103909e+00,1.503425e+00 
6,-9.347429e+00,7.826311e+00,1.547311e+00 
7,-9.627236e+00,7.540329e+00,1.579881e+00 
8,-9.899919e+00,7.246557e+00,1.601866e+00 
9,-1.016524e+01,6.945557e+00,1.614022e+00 
10,-1.042302e+01,6.637855e+00,1.617142e+00 
11,-1.067317e+01,6.323935e+00,1.612010e+00 
12,-1.091562e+01,6.004240e+00,1.599399e+00 
13,-1.115035e+01,5.679165e+00,1.580067e+00 
14,-1.137739e+01,5.349067e+00,1.554756e+00 
15,-1.159675e+01,5.014264e+00,1.524177e+00 
16,-1.180851e+01,4.675038e+00,1.489022e+00 
17,-1.201271e+01,4.331636e+00,1.449951e+00 
18,-1.220944e+01,3.984279e+00,1.407611e+00 
19,-1.239876e+01,3.633160e+00,1.362615e+00 
20,-1.258075e+01,3.278451e+00,1.315564e+00 
** ... 8567 like lines cut
*NODE, NSET=Chordae_Nodes 
8588,-1.406807e+01,-8.320672e+00,-2.535352e+01 
8589,-1.407327e+01,-8.662652e+00,-2.322602e+01 
8590,-1.407784e+01,-8.963385e+00,-2.109852e+01 
8591,-1.408123e+01,-9.186597e+00,-1.897101e+01 
8592,-1.408304e+01,-9.305366e+00,-1.684351e+01 
8593,-1.408304e+01,-9.305366e+00,-1.471601e+01 
8594,-1.408123e+01,-9.186597e+00,-1.258850e+01 
8595,-1.407784e+01,-8.963385e+00,-1.046100e+01 
8596,-1.407327e+01,-8.662653e+00,-8.333497e+00 
8597,-1.406808e+01,-8.320672e+00,-6.205994e+00 
8598,-9.255000e+00,9.966000e+00,-2.310804e+01 
8599,-8.993394e+00,9.535067e+00,-2.139454e+01 
8600,-8.748728e+00,9.141559e+00,-1.967728e+01 
8601,-8.535899e+00,8.818387e+00,-1.795294e+01 
8602,-8.365963e+00,8.589980e+00,-1.621908e+01 
8603,-8.244803e+00,8.469335e+00,-1.447437e+01 
8604,-8.172420e+00,8.456452e+00,-1.271883e+01 
8605,-8.142929e+00,8.538333e+00,-1.095375e+01 
8606,-8.145276e+00,8.690550e+00,-9.181600e+00 
8607,-8.164562e+00,8.880193e+00,-7.405685e+00 
** ... 2439 like lines cut
*ELEMENT, TYPE=S4R, ELSET=Anterior_Leaflet_Elements 
1,72,1652,1852,172 
2,1652,1653,1853,1852 
3,1653,1654,1854,1853 
4,1654,1655,1855,1854 
5,1655,1656,1856,1855 
6,1656,1657,1857,1856 
7,1657,1658,1858,1857 
8,1658,1659,1859,1858 
9,1659,1660,1860,1859 
10,1660,1661,1861,1860 
11,1661,1662,1862,1861 
12,1662,1663,1863,1862 
13,1663,1664,1864,1863 
14,1664,1665,1865,1864 
15,1665,1666,1866,1865 
16,1666,1667,1867,1866 
17,1667,1668,1868,1867 
18,1668,1669,1869,1868 
19,1669,1670,1870,1869 
20,1670,1671,1871,1870 
** ... 5021 like lines cut
*ELEMENT, TYPE=S4R, ELSET=Septal_Leaflet_Elements 
5042,6879,50,71,6880 
5043,6878,6879,6880,6881 
5044,6877,6878,6881,6882 
5045,6876,6877,6882,6883 
5046,6875,6876,6883,6884 
5047,6874,6875,6884,6885 
5048,6873,6874,6885,6886 
5049,6872,6873,6886,6887 
5050,6871,6872,6887,6888 
5051,6870,6871,6888,6889 
5052,6869,6870,6889,6890 
5053,6868,6869,6890,6891 
5054,6867,6868,6891,6866 
5055,6865,6866,6891,7084 
5056,6864,6865,7084,6892 
5057,6863,6864,6892,6893 
5058,6895,6863,6893,6894 
5059,6862,6863,6895,6896 
5060,6861,6862,6896,6897 
5061,6860,6861,6897,6898 
** ... 1789 like lines cut
*ELEMENT, TYPE=S4R, ELSET=Posterior_Leaflet_Elements 
6851,50,73,173,71 
6852,71,173,174,70 
6853,173,176,175,174 
6854,173,73,177,176 
6855,73,74,178,177 
6856,74,75,179,178 
6857,75,76,180,179 
6858,76,77,181,180 
6859,77,78,182,181 
6860,78,79,183,182 
6861,79,80,184,183 
6862,80,81,185,184 
6863,81,82,186,185 
6864,82,83,187,186 
6865,83,84,188,187 
6866,84,85,189,188 
6867,85,86,190,189 
6868,86,87,191,190 
6869,87,88,192,191 
6870,88,89,193,192 
** ... 1413 like lines cut
*ELEMENT, TYPE=T3D2, ELSET=Chordae_Elements 
** COMMISSURE MAIN CHORDAE POINTS 
8284, 8588, 8589 
8285, 8589, 8590 
8286, 8590, 8591 
8287, 8591, 8592 
8288, 8592, 8593 
8289, 8593, 8594 
8290, 8594, 8595 
8291, 8595, 8596 
8292, 8596, 72 
8293, 8598, 8599 
8294, 8599, 8600 
8295, 8600, 8601 
8296, 8601, 8602 
8297, 8602, 8603 
8298, 8603, 8604 
8299, 8604, 8605 
8300, 8605, 8606 
8301, 8606, 50 
8302, 8608, 8609 
8303, 8609, 8610 
** ... 7 like lines cut
** COMMISSURE CHORDAE FAN POINTS 
8311, 8595, 8618 
8312, 8618, 155 
8313, 8595, 8619 
8314, 8619, 1661 
8315, 8605, 8620 
8316, 8620, 6871 
8317, 8605, 8621 
8318, 8621, 81 
8319, 8615, 8622 
8320, 8622, 1827 
8321, 8615, 8623 
8322, 8623, 6792 
** CT Clear Points 
8323, 8588, 8624 
8324, 8624, 8625 
8325, 8625, 8626 
8326, 8626, 8627 
8327, 8627, 8628 
8328, 8628, 8629 
8329, 8629, 8630 
8330, 8630, 8631 
8331, 8631, 8632 
8332, 8632, 5935 
8333, 8608, 8633 
8334, 8633, 8634 
8335, 8634, 8635 
8336, 8635, 8636 
8337, 8636, 8637 
8338, 8637, 8638 
8339, 8638, 8639 
8340, 8639, 8640 
8341, 8640, 8641 
8342, 8641, 3158 
** ... 30 like lines cut
** CLEAR CHORDAE 
8374, 8631, 8669 
8375, 8669, 5432 
8376, 8631, 8670 
8377, 8670, 5433 
8378, 8631, 8671 
8379, 8671, 5435 
8380, 8631, 8672 
8381, 8672, 5436 
8382, 8631, 8673 
8383, 8673, 5731 
8384, 8631, 8674 
8385, 8674, 5732 
8386, 8631, 8675 
8387, 8675, 5733 
8388, 8631, 8676 
8389, 8676, 5783 
8390, 8631, 8677 
8391, 8677, 5784 
8392, 8631, 8678 
8393, 8678, 5933 
** ... 172 like lines cut
** CHORDAE ROUGH POINTS 
8566, 8588, 8765 
8567, 8765, 8766 
8568, 8766, 8767 
8569, 8767, 8768 
8570, 8768, 8769 
8571, 8769, 8770 
8572, 8770, 8771 
8573, 8771, 8772 
8574, 8772, 8773 
8575, 8773, 1858 
8576, 8588, 8774 
8577, 8774, 8775 
8578, 8775, 8776 
8579, 8776, 8777 
8580, 8777, 8778 
8581, 8778, 8779 
8582, 8779, 8780 
8583, 8780, 8781 
8584, 8781, 8782 
8585, 8782, 2021 
** ... 170 like lines cut
** ROUGH CHORDAE 
8756, 8772, 8936 
8757, 8936, 1656 
8758, 8772, 8937 
8759, 8937, 1657 
8760, 8772, 8938 
8761, 8938, 1658 
8762, 8772, 8939 
8763, 8939, 1659 
8764, 8772, 8940 
8765, 8940, 1660 
8766, 8772, 8941 
8767, 8941, 1856 
8768, 8772, 8942 
8769, 8942, 1857 
8770, 8772, 8943 
8771, 8943, 1859 
8772, 8772, 8944 
8773, 8944, 1860 
8774, 8772, 8945 
8775, 8945, 2011 
** ... 600 like lines cut
** MANUAL ANTERIOR CHORDAE 
9376, 8608, 9246 
9377, 9246, 9247 
9378, 9247, 9248 
9379, 9248, 9249 
9380, 9249, 9250 
9381, 9250, 9251 
9382, 9251, 9252 
9383, 9252, 9253 
9384, 9253, 6923 
9385, 8608, 9254 
9386, 9254, 9255 
9387, 9255, 9256 
9388, 9256, 9257 
9389, 9257, 9258 
9390, 9258, 9259 
9391, 9259, 9260 
9392, 9260, 9261 
9393, 9261, 7328 
9394, 8608, 9262 
9395, 9262, 9263 
** ... 70 like lines cut
** MANUAL POSTERIOR CHORDAE 
9466, 8588, 9326 
9467, 9326, 9327 
9468, 9327, 9328 
9469, 9328, 9329 
9470, 9329, 9330 
9471, 9330, 9331 
9472, 9331, 9332 
9473, 9332, 9333 
9474, 9333, 153 
9475, 8588, 9334 
9476, 9334, 9335 
9477, 9335, 9336 
9478, 9336, 9337 
9479, 9337, 9338 
9480, 9338, 9339 
9481, 9339, 9340 
9482, 9340, 9341 
9483, 9341, 141 
9484, 8588, 9342 
9485, 9342, 9343 
** ... 97 like lines cut
** MANUAL SEPTAL CHORDAE 
9583, 8598, 9430 
9584, 9430, 9431 
9585, 9431, 9432 
9586, 9432, 9433 
9587, 9433, 9434 
9588, 9434, 9435 
9589, 9435, 9436 
9590, 9436, 9437 
9591, 9437, 92 
9592, 8598, 9438 
9593, 9438, 9439 
9594, 9439, 9440 
9595, 9440, 9441 
9596, 9441, 9442 
9597, 9442, 9443 
9598, 9443, 9444 
9599, 9444, 9445 
9600, 9445, 187 
9601, 8598, 9446 
9602, 9446, 9447 
** ... 115 like lines cut
** MANUAL ANTERIOR FAN 
9720, 9252, 9550 
9721, 9550, 6833 
9722, 9252, 9551 
9723, 9551, 6834 
9724, 9252, 9552 
9725, 9552, 6835 
9726, 9252, 9553 
9727, 9553, 6836 
9728, 9252, 9554 
9729, 9554, 6837 
9730, 9252, 9555 
9731, 9555, 6921 
9732, 9252, 9556 
9733, 9556, 6922 
9734, 9252, 9557 
9735, 9557, 6924 
9736, 9252, 9558 
9737, 9558, 6925 
9738, 9252, 9559 
9739, 9559, 6926 
** ... 362 like lines cut
** MANUAL POSTERIOR FAN 
10102, 9332, 9741 
10103, 9741, 151 
10104, 9332, 9742 
10105, 9742, 152 
10106, 9332, 9743 
10107, 9743, 154 
10108, 9332, 9744 
10109, 9744, 155 
10110, 9332, 9745 
10111, 9745, 271 
10112, 9332, 9746 
10113, 9746, 272 
10114, 9332, 9747 
10115, 9747, 273 
10116, 9332, 9748 
10117, 9748, 274 
10118, 9332, 9749 
10119, 9749, 275 
10120, 9332, 9750 
10121, 9750, 407 
** ... 436 like lines cut
** MANUAL SEPTAL FAN 
10558, 9436, 9969 
10559, 9969, 89 
10560, 9436, 9970 
10561, 9970, 90 
10562, 9436, 9971 
10563, 9971, 91 
10564, 9436, 9972 
10565, 9972, 93 
10566, 9436, 9973 
10567, 9973, 94 
10568, 9436, 9974 
10569, 9974, 193 
10570, 9436, 9975 
10571, 9975, 194 
10572, 9436, 9976 
10573, 9976, 195 
10574, 9436, 9977 
10575, 9977, 350 
10576, 9436, 9978 
10577, 9978, 351 
** ... 566 like lines cut
** MANUAL PAPILLARY POINTS 
11144, 10262, 10263 
11145, 10263, 10264 
11146, 10264, 10265 
11147, 10265, 10266 
11148, 10266, 10267 
11149, 10267, 10268 
11150, 10268, 10269 
11151, 10269, 10270 
11152, 10270, 1721 
11153, 10271, 10272 
11154, 10272, 10273 
11155, 10273, 10274 
11156, 10274, 10275 
11157, 10275, 10276 
11158, 10276, 10277 
11159, 10277, 10278 
11160, 10278, 10279 
11161, 10279, 1927 
11162, 10280, 10281 
11163, 10281, 10282 
** ... 241 like lines cut
** MANUAL PAPILLARY SPLIT 
11406, 10269, 10523 
11407, 10523, 1719 
11408, 10269, 10524 
11409, 10524, 1720 
11410, 10269, 10525 
11411, 10525, 1722 
11412, 10269, 10526 
11413, 10526, 1723 
11414, 10269, 10527 
11415, 10527, 1919 
11416, 10269, 10528 
11417, 10528, 1920 
11418, 10269, 10529 
11419, 10529, 1921 
11420, 10269, 10530 
11421, 10530, 1922 
11422, 10269, 10531 
11423, 10531, 1923 
11424, 10269, 10532 
11425, 10532, 2071 
** ... 1028 like lines cut
*NSET, NSET=Annular_Nodes 
1,2,3,4,5,6,
7,8,9,10,11,12,
13,14,15,16,17,18,
19,20,21,22,23,24,
25,26,27,28,29,30,
31,32,33,34,35,36,
37,38,39,40,41,42,
43,44,45,46,47,48,
49,1521,1522,1523,1524,1525,
1526,1527,1528,1529,1530,1531,
1532,1533,1534,1535,1536,1537,
1538,1539,1540,1541,1542,1543,
1544,1545,1546,1547,1548,1549,
1550,1551,1552,1553,1554,1555,
1556,1557,1558,1559,1560,1561,
1562,1563,1564,1565,1566,1567,
1568,1569,1570,1571,1572,1573,
1574,1575,1576,1577,1578,1579,
1580,1581,1582,1583,1584,1585,
1586,1587,1588,1589,1590,1591,
** ... 21 like lines cut
*NSET, NSET=Free_Edge_Nodes 
50,72,73,74,75,76,
77,78,79,80,81,82,
83,84,85,86,87,88,
89,90,91,92,93,94,
95,96,97,98,99,100,
101,102,103,104,105,106,
107,108,109,110,111,112,
113,114,115,116,117,118,
119,120,121,122,123,124,
125,126,127,128,129,130,
131,132,133,134,135,136,
137,138,139,140,141,142,
143,144,145,146,147,148,
149,150,151,152,153,154,
155,156,157,1651,1652,1653,
1654,1655,1656,1657,1658,1659,
1660,1661,1662,1663,1664,1665,
1666,1667,1668,1669,1670,1671,
1672,1673,1674,1675,1676,1677,
1678,1679,1680,1681,1682,1683,
** ... 41 like lines cut
*ELSET, ELSET=Posterior_Chordae 
8284,8285,8286,8287,8288,8289, 
8290,8291,8292,8311,8312,8313, 
8314,9466,9467,9468,9469,9470, 
9471,9472,9473,9474,9475,9476, 
9477,9478,9479,9480,9481,9482, 
9483,9484,9485,9486,9487,9488, 
9489,9490,9491,9492,9502,9503, 
9504,9505,9506,9507,9508,9509, 
9510,9511,9512,9513,9514,9515, 
9516,9517,9518,9519,9520,9521, 
9522,9523,9524,9525,9526,9527, 
9528,9529,9530,9531,9532,9533, 
9534,9535,9536,9537,9538,9539, 
9540,9541,9542,9543,9544,9545, 
9546,9547,9548,9549,9550,9551, 
9552,9553,9554,9555,9556,9557, 
9558,9559,9560,9561,9562,9563, 
9564,9565,9566,9567,9568,9569, 
9570,9571,9572,9573,9574,9575, 
9576,9577,9578,9579,9580,9581, 
** ... 203 like lines cut

*ELSET, ELSET=Septal_Chordae 
8293,8294,8295,8296,8297,8298, 
8299,8300,8301,8315,8316,8317, 
8318,8353,8354,8355,8356,8357, 
8358,8359,8360,8361,8362,8363, 
8364,8365,8366,8367,8368,8369, 
8370,8371,8372,8482,8483,8484, 
8485,8486,8487,8488,8489,8490, 
8491,8492,8493,8494,8495,8496, 
8497,8498,8499,8500,8501,8502, 
8503,8504,8505,8506,8507,8508, 
8509,8510,8511,8512,8513,8514, 
8515,8516,8517,8518,8519,8520, 
8521,8522,8523,8524,8525,8526, 
8527,8528,8529,8530,8531,8532, 
8533,8534,8535,8536,8537,8538, 
8539,8540,8541,8542,8543,8544, 
8545,8546,8547,8548,8549,8550, 
8551,8552,8553,8554,8555,8556, 
8557,8558,8559,8560,8561,8562, 
8563,8564,8565,8626,8627,8628, 
** ... 210 like lines cut
*ELSET, ELSET=Anterior_Chordae 
8302,8303,8304,8305,8306,8307, 
8308,8309,8310,8319,8320,8321, 
8322,8323,8324,8325,8326,8327, 
8328,8329,8330,8331,8332,8333, 
8334,8335,8336,8337,8338,8339, 
8340,8341,8342,8343,8344,8345, 
8346,8347,8348,8349,8350,8351, 
8352,8374,8375,8376,8377,8378, 
8379,8380,8381,8382,8383,8384, 
8385,8386,8387,8388,8389,8390, 
8391,8392,8393,8394,8395,8396, 
8397,8398,8399,8400,8401,8402, 
8403,8404,8405,8406,8407,8408, 
8409,8410,8411,8412,8413,8414, 
8415,8416,8417,8418,8419,8420, 
8421,8422,8423,8424,8425,8426, 
8427,8428,8429,8430,8431,8432, 
8433,8434,8435,8436,8437,8438, 
8439,8440,8441,8442,8443,8444, 
8445,8446,8447,8448,8449,8450, 
** ... 223 like lines cut
*ELSET, ELSET=LEAFLET_ELEMENTS 
Septal_Leaflet_Elements, Posterior_Leaflet_Elements, Anterior_Leaflet_Elements 

*Distribution, name=Ori-1-DiscOrient, location=ELEMENT, Table=Ori-1-DiscOrient_Table
,           1.,           0.,           0.,           0.,           1.,           0.
6851,0.785745,0.618550,-0.000000,0.000000,0.000000,1.000000
6852,0.782784,0.622293,-0.000000,0.000000,0.000000,1.000000
6853,0.746935,0.664897,-0.000000,0.000000,0.000000,1.000000
6854,0.747448,0.664320,-0.000000,0.000000,0.000000,1.000000
6855,0.755818,0.654782,-0.000000,0.000000,0.000000,1.000000
6856,0.739454,0.673207,-0.000000,0.000000,0.000000,1.000000
6857,0.737365,0.675495,-0.000000,0.000000,0.000000,1.000000
6858,0.738947,0.673764,-0.000000,0.000000,0.000000,1.000000
6859,0.738367,0.674399,-0.000000,0.000000,0.000000,1.000000
6860,0.734496,0.678613,-0.000000,0.000000,0.000000,1.000000
6861,0.727784,0.685806,-0.000000,0.000000,0.000000,1.000000
6862,0.719236,0.694765,-0.000000,0.000000,0.000000,1.000000
6863,0.709941,0.704261,-0.000000,0.000000,0.000000,1.000000
6864,0.701443,0.712726,-0.000000,0.000000,0.000000,1.000000
6865,0.693948,0.720025,-0.000000,0.000000,0.000000,1.000000
6866,0.685403,0.728164,-0.000000,0.000000,0.000000,1.000000
6867,0.672565,0.740038,-0.000000,0.000000,0.000000,1.000000
6868,0.656150,0.754631,-0.000000,0.000000,0.000000,1.000000
6869,0.643048,0.765826,-0.000000,0.000000,0.000000,1.000000
6870,0.633470,0.773767,-0.000000,0.000000,0.000000,1.000000
** ... 1413 like lines cut
*Orientation, name=Ori-1, system=RECTANGULAR, local directions=1
Ori-1-DiscOrient
3, 0.
1.000000,0.000000,0.0
*Distribution, name=Ori-2-DiscOrient, location=ELEMENT, Table=Ori-2-DiscOrient_Table
,           1.,           0.,           0.,           0.,           1.,           0.
1,-0.379669,0.925122,-0.000000,0.000000,0.000000,1.000000
2,-0.419040,0.907968,-0.000000,0.000000,0.000000,1.000000
3,-0.452477,0.891776,-0.000000,0.000000,0.000000,1.000000
4,-0.484917,0.874560,-0.000000,0.000000,0.000000,1.000000
5,-0.516993,0.855989,-0.000000,0.000000,0.000000,1.000000
6,-0.547163,0.837026,-0.000000,0.000000,0.000000,1.000000
7,-0.573717,0.819053,-0.000000,0.000000,0.000000,1.000000
8,-0.598113,0.801411,-0.000000,0.000000,0.000000,1.000000
9,-0.620641,0.784095,-0.000000,0.000000,0.000000,1.000000
10,-0.641202,0.767372,-0.000000,0.000000,0.000000,1.000000
11,-0.660420,0.750896,-0.000000,0.000000,0.000000,1.000000
12,-0.679393,0.733775,-0.000000,0.000000,0.000000,1.000000
13,-0.697999,0.716099,-0.000000,0.000000,0.000000,1.000000
14,-0.715908,0.698194,-0.000000,0.000000,0.000000,1.000000
15,-0.732095,0.681203,-0.000000,0.000000,0.000000,1.000000
16,-0.745996,0.665950,-0.000000,0.000000,0.000000,1.000000
17,-0.758296,0.651910,-0.000000,0.000000,0.000000,1.000000
18,-0.769716,0.638386,-0.000000,0.000000,0.000000,1.000000
19,-0.781241,0.624229,-0.000000,0.000000,0.000000,1.000000
20,-0.793296,0.608836,-0.000000,0.000000,0.000000,1.000000
** ... 5021 like lines cut
*Orientation, name=Ori-2, system=RECTANGULAR, local directions=1
Ori-2-DiscOrient
3, 0.
1.000000,0.000000,0.0
*Distribution, name=Ori-3-DiscOrient, location=ELEMENT, Table=Ori-3-DiscOrient_Table
,           1.,           0.,           0.,           0.,           1.,           0.
5042,0.799755,0.600327,-0.000000,0.000000,0.000000,1.000000
5043,0.804271,0.594263,-0.000000,0.000000,0.000000,1.000000
5044,0.805552,0.592526,-0.000000,0.000000,0.000000,1.000000
5045,0.834130,0.551567,-0.000000,0.000000,0.000000,1.000000
5046,0.870237,0.492633,-0.000000,0.000000,0.000000,1.000000
5047,0.880240,0.474528,-0.000000,0.000000,0.000000,1.000000
5048,0.880152,0.474691,-0.000000,0.000000,0.000000,1.000000
5049,0.876919,0.480638,-0.000000,0.000000,0.000000,1.000000
5050,0.872597,0.488441,-0.000000,0.000000,0.000000,1.000000
5051,0.869009,0.494796,-0.000000,0.000000,0.000000,1.000000
5052,0.867567,0.497320,-0.000000,0.000000,0.000000,1.000000
5053,0.868601,0.495513,-0.000000,0.000000,0.000000,1.000000
5054,0.874307,0.485374,-0.000000,0.000000,0.000000,1.000000
5055,0.887507,0.460794,-0.000000,0.000000,0.000000,1.000000
5056,0.901313,0.433168,-0.000000,0.000000,0.000000,1.000000
5057,0.911928,0.410350,-0.000000,0.000000,0.000000,1.000000
5058,0.917919,0.396768,-0.000000,0.000000,0.000000,1.000000
5059,0.919123,0.393972,-0.000000,0.000000,0.000000,1.000000
5060,0.924002,0.382387,-0.000000,0.000000,0.000000,1.000000
5061,0.932508,0.361149,-0.000000,0.000000,0.000000,1.000000
** ... 1789 like lines cut
*Orientation, name=Ori-3, system=RECTANGULAR, local directions=1
Ori-3-DiscOrient
3, 0.
1.000000,0.000000,0.0
*Shell Section, elset=Septal_Leaflet_Elements,  orientation=Ori-3, material=Septal_Leaflet 
.65,5 
*Shell Section, elset=Posterior_Leaflet_Elements, orientation=Ori-1, material=Posterior_Leaflet 
.65,5 
*Shell Section, elset=Anterior_Leaflet_Elements,  orientation=Ori-2, material=Anterior_Leaflet 
.65,5 
*Solid Section, elset=Anterior_Chordae, material=Anterior_Chordae
0.35634654, 
*Solid Section, elset=Posterior_Chordae, material=Posterior_Chordae
0.330046348, 
*Solid Section, elset=Septal_Chordae, material=Septal_Chordae
0.269284347, 
*End Part 
*Assembly, name=Valve_Assembly 
*Instance, name=Leaflet_Instance, part=Leaflet 
*End Instance 
*Surface, type=ELEMENT, name=Leaflet_Surfaces, MAXRATIO=0.6 
Leaflet_Instance.Anterior_Leaflet_Elements, SPOS 
Leaflet_Instance.Posterior_Leaflet_Elements, SPOS 
Leaflet_Instance.Septal_Leaflet_Elements, SPOS 
*End Assembly 
*Distribution Table, name=Ori-1-DiscOrient_Table
coord3D, coord3D
*Distribution Table, name=Ori-3-DiscOrient_Table
coord3D, coord3D
*Distribution Table, name=Ori-2-DiscOrient_Table
coord3D, coord3D
*Amplitude, name=Amp-1, definition=SMOOTH STEP 
0.,  0.,  1.,  1. 
*Material, name=Anterior_Chordae 
*Density 
1e-9 
*Hyperelastic, OGDEN, N=3 
18.884147787615671,  98.253655062498183,  22.682992286286954, 98.251894443391549,  19.502933935159177,  98.253228660027887, 3.2760e-05, 0
  0.,
*Material, name=Posterior_Chordae 
*Density 
1e-9 
*Hyperelastic, OGDEN, N=3 
4.241553984852658,  55.914887194545429,   2.724796146859668, 55.915477229563507,   0.000037265674134,  70.715073154655229, 2.8719e-04, 0
  0.,
*Material, name=Septal_Chordae 
*Density 
1e-9 
*Hyperelastic, OGDEN, N=3 
33.7534784879460, 0.0001531670654, 0.0000145962860, 0.0003488130193, 0.0203430173299,   113.4473866780919, 5.9237e-05, 0
  0.,
*Material, name=Anterior_Leaflet
*Density
1e-09,
*anisotropic hyperelastic, user,formulation=invariant, local directions=1, type=compressible, properties=4
0.001000, 20.066890, 0.000124, 4.568202
*TRANSVERSE SHEAR
5.000000e-03,5.000000e-03,0.0
*Material, name=Posterior_Leaflet
*Density
1e-09,
*anisotropic hyperelastic, user,formulation=invariant, local directions=1, type=compressible, properties=4
0.001000, 20.066890, 0.000188, 14.859590
*TRANSVERSE SHEAR
5.000000e-03,5.000000e-03,0.0
*Material, name=Septal_Leaflet
*Density
1e-09,
*anisotropic hyperelastic, user,formulation=invariant, local directions=1, type=compressible, properties=4
0.001000, 20.066890, 0.000191, 17.751490
*TRANSVERSE SHEAR
5.000000e-03,5.000000e-03,0.0
*Surface Interaction, name=Interaction_Property 
1., 
*Friction 
0.01, 
*Surface Behavior, pressure-overclosure=linear 
0.5
*Step, name="Annulus Approximation", nlgeom=YES 
*Dynamic, Explicit 
, 1. 
*Bulk Viscosity 
5, 1.2 
*VARIABLE MASS SCALING, TYPE=UNIFORM, FREQUENCY=100, DT=5e-7
*VARIABLE MASS SCALING, TYPE=UNIFORM, ELSET=LEAFLET_INSTANCE.LEAFLET_ELEMENTS, FREQUENCY=100, DT=5e-7
*VARIABLE MASS SCALING, TYPE=BELOW MIN, ELSET=LEAFLET_INSTANCE.Chordae_Elements, FREQUENCY=100, DT=1e-6
*Boundary,op=NEW,amplitude=Amp-1 
Leaflet_Instance.1,1,1,-0.564805 
Leaflet_Instance.1,2,2,0.855493 
Leaflet_Instance.1,3,3,0.034586 
*Boundary,op=NEW,amplitude=Amp-1 
Leaflet_Instance.2,1,1,-0.641906 
Leaflet_Instance.2,2,2,-0.348880 
Leaflet_Instance.2,3,3,0.013224 
*Boundary,op=NEW,amplitude=Amp-1 
Leaflet_Instance.3,1,1,-0.599537 
Leaflet_Instance.3,2,2,0.850605 
Leaflet_Instance.3,3,3,0.053830 
*Boundary,op=NEW,amplitude=Amp-1 
Leaflet_Instance.4,1,1,-0.668044 
Leaflet_Instance.4,2,2,0.837079 
Leaflet_Instance.4,3,3,0.094093 
*Boundary,op=NEW,amplitude=Amp-1 
Leaflet_Instance.5,1,1,-0.668044 
Leaflet_Instance.5,2,2,0.837079 
Leaflet_Instance.5,3,3,0.094093 
*Boundary,op=NEW,amplitude=Amp-1 
Leaflet_Instance.6,1,1,-0.734365 
Leaflet_Instance.6,2,2,0.816344 
Leaflet_Instance.6,3,3,0.137375 
*Boundary,op=NEW,amplitude=Amp-1 
Leaflet_Instance.7,1,1,-0.734365 
Leaflet_Instance.7,2,2,0.816344 
Leaflet_Instance.7,3,3,0.137375 
*Boundary,op=NEW,amplitude=Amp-1 
Leaflet_Instance.8,1,1,-0.798063 
Leaflet_Instance.8,2,2,0.788904 
Leaflet_Instance.8,3,3,0.182702 
*Boundary,op=NEW,amplitude=Amp-1 
Leaflet_Instance.9,1,1,-0.798063 
Leaflet_Instance.9,2,2,0.788904 
Leaflet_Instance.9,3,3,0.182702 
*Boundary,op=NEW,amplitude=Amp-1 
Leaflet_Instance.10,1,1,-0.858560 
Leaflet_Instance.10,2,2,0.755271 
Leaflet_Instance.10,3,3,0.229034 
*Boundary,op=NEW,amplitude=Amp-1 
Leaflet_Instance.11,1,1,-0.858560 
Leaflet_Instance.11,2,2,0.755271 
Leaflet_Instance.11,3,3,0.229034 
*Boundary,op=NEW,amplitude=Amp-1 
Leaflet_Instance.12,1,1,-0.915057 
Leaflet_Instance.12,2,2,0.716077 
Leaflet_Instance.12,3,3,0.275158 
*Boundary,op=NEW,amplitude=Amp-1 
Leaflet_Instance.13,1,1,-0.915057 
Leaflet_Instance.13,2,2,0.716077 
Leaflet_Instance.13,3,3,0.275158 
*Boundary,op=NEW,amplitude=Amp-1 
Leaflet_Instance.14,1,1,-0.966976 
Leaflet_Instance.14,2,2,0.671824 
Leaflet_Instance.14,3,3,0.320034 
*Boundary,op=NEW,amplitude=Amp-1 
Leaflet_Instance.15,1,1,-0.966976 
Leaflet_Instance.15,2,2,0.671824 
Leaflet_Instance.15,3,3,0.320034 
*Boundary,op=NEW,amplitude=Amp-1 
Leaflet_Instance.16,1,1,-1.013724 
Leaflet_Instance.16,2,2,0.623026 
Leaflet_Instance.16,3,3,0.362610 
*Boundary,op=NEW,amplitude=Amp-1 
Leaflet_Instance.17,1,1,-1.013724 
Leaflet_Instance.17,2,2,0.623026 
Leaflet_Instance.17,3,3,0.362610 
*Boundary,op=NEW,amplitude=Amp-1 
Leaflet_Instance.18,1,1,-1.054598 
Leaflet_Instance.18,2,2,0.570275 
Leaflet_Instance.18,3,3,0.401742 
*Boundary,op=NEW,amplitude=Amp-1 
Leaflet_Instance.19,1,1,-1.054598 
Leaflet_Instance.19,2,2,0.570275 
Leaflet_Instance.19,3,3,0.401742 
*Boundary,op=NEW,amplitude=Amp-1 
Leaflet_Instance.20,1,1,-1.088969 
Leaflet_Instance.20,2,2,0.514113 
Leaflet_Instance.20,3,3,0.436347 
*Boundary,op=NEW,amplitude=Amp-1 
Leaflet_Instance.21,1,1,-1.088969 
Leaflet_Instance.21,2,2,0.514113 
Leaflet_Instance.21,3,3,0.436347 
*Boundary,op=NEW,amplitude=Amp-1 
Leaflet_Instance.22,1,1,-1.116197 
Leaflet_Instance.22,2,2,0.455083 
Leaflet_Instance.22,3,3,0.465333 
*Boundary,op=NEW,amplitude=Amp-1 
Leaflet_Instance.23,1,1,-1.116197 
Leaflet_Instance.23,2,2,0.455083 
Leaflet_Instance.23,3,3,0.465333 
*Boundary,op=NEW,amplitude=Amp-1 
Leaflet_Instance.24,1,1,-1.135641 
Leaflet_Instance.24,2,2,0.393731 
Leaflet_Instance.24,3,3,0.487612 
*Boundary,op=NEW,amplitude=Amp-1 
Leaflet_Instance.25,1,1,-1.135641 
Leaflet_Instance.25,2,2,0.393731 
Leaflet_Instance.25,3,3,0.487612 
*Boundary,op=NEW,amplitude=Amp-1 
Leaflet_Instance.26,1,1,-1.146659 
Leaflet_Instance.26,2,2,0.330614 
Leaflet_Instance.26,3,3,0.502086 
*Boundary,op=NEW,amplitude=Amp-1 
Leaflet_Instance.27,1,1,-1.146659 
Leaflet_Instance.27,2,2,0.330614 
Leaflet_Instance.27,3,3,0.502086 
*Boundary,op=NEW,amplitude=Amp-1 
Leaflet_Instance.28,1,1,-1.148610 
Leaflet_Instance.28,2,2,0.266264 
Leaflet_Instance.28,3,3,0.507667 
*Boundary,op=NEW,amplitude=Amp-1 
Leaflet_Instance.29,1,1,-1.148610 
Leaflet_Instance.29,2,2,0.266264 
Leaflet_Instance.29,3,3,0.507667 
*Boundary,op=NEW,amplitude=Amp-1 
Leaflet_Instance.30,1,1,-1.140928 
Leaflet_Instance.30,2,2,0.201283 
Leaflet_Instance.30,3,3,0.503287 
*Boundary,op=NEW,amplitude=Amp-1 
Leaflet_Instance.31,1,1,-1.140928 
Leaflet_Instance.31,2,2,0.201283 
Leaflet_Instance.31,3,3,0.503287 
*Boundary,op=NEW,amplitude=Amp-1 
Leaflet_Instance.32,1,1,-1.123574 
Leaflet_Instance.32,2,2,0.136322 
Leaflet_Instance.32,3,3,0.488565 
*Boundary,op=NEW,amplitude=Amp-1 
Leaflet_Instance.33,1,1,-1.123574 
Leaflet_Instance.33,2,2,0.136322 
Leaflet_Instance.33,3,3,0.488565 
*Boundary,op=NEW,amplitude=Amp-1 
Leaflet_Instance.34,1,1,-1.097107 
Leaflet_Instance.34,2,2,0.071995 
Leaflet_Instance.34,3,3,0.464044 
*Boundary,op=NEW,amplitude=Amp-1 
Leaflet_Instance.35,1,1,-1.097107 
Leaflet_Instance.35,2,2,0.071995 
Leaflet_Instance.35,3,3,0.464044 
*Boundary,op=NEW,amplitude=Amp-1 
Leaflet_Instance.36,1,1,-1.062234 
Leaflet_Instance.36,2,2,0.008897 
Leaflet_Instance.36,3,3,0.430543 
*Boundary,op=NEW,amplitude=Amp-1 
Leaflet_Instance.37,1,1,-1.062234 
Leaflet_Instance.37,2,2,0.008897 
Leaflet_Instance.37,3,3,0.430543 
*Boundary,op=NEW,amplitude=Amp-1 
Leaflet_Instance.38,1,1,-1.019659 
Leaflet_Instance.38,2,2,-0.052383 
Leaflet_Instance.38,3,3,0.388879 
*Boundary,op=NEW,amplitude=Amp-1 
Leaflet_Instance.39,1,1,-1.019659 
Leaflet_Instance.39,2,2,-0.052383 
Leaflet_Instance.39,3,3,0.388879 
*Boundary,op=NEW,amplitude=Amp-1 
Leaflet_Instance.40,1,1,-0.970086 
Leaflet_Instance.40,2,2,-0.111256 
Leaflet_Instance.40,3,3,0.339869 
*Boundary,op=NEW,amplitude=Amp-1 
Leaflet_Instance.41,1,1,-0.914219 
Leaflet_Instance.41,2,2,-0.167133 
Leaflet_Instance.41,3,3,0.284328 
*Boundary,op=NEW,amplitude=Amp-1 
Leaflet_Instance.42,1,1,-0.914219 
Leaflet_Instance.42,2,2,-0.167133 
Leaflet_Instance.42,3,3,0.284328 
*Boundary,op=NEW,amplitude=Amp-1 
Leaflet_Instance.43,1,1,-0.852763 
Leaflet_Instance.43,2,2,-0.219424 
Leaflet_Instance.43,3,3,0.223077 
*Boundary,op=NEW,amplitude=Amp-1 
Leaflet_Instance.44,1,1,-0.852763 
Leaflet_Instance.44,2,2,-0.219424 
Leaflet_Instance.44,3,3,0.223077 
*Boundary,op=NEW,amplitude=Amp-1 
Leaflet_Instance.45,1,1,-0.786425 
Leaflet_Instance.45,2,2,-0.267536 
Leaflet_Instance.45,3,3,0.156934 
*Boundary,op=NEW,amplitude=Amp-1 
Leaflet_Instance.46,1,1,-0.786425 
Leaflet_Instance.46,2,2,-0.267536 
Leaflet_Instance.46,3,3,0.156934 
*Boundary,op=NEW,amplitude=Amp-1 
Leaflet_Instance.47,1,1,-0.715904 
Leaflet_Instance.47,2,2,-0.310885 
Leaflet_Instance.47,3,3,0.086709 
*Boundary,op=NEW,amplitude=Amp-1 
Leaflet_Instance.48,1,1,-0.715904 
Leaflet_Instance.48,2,2,-0.310885 
Leaflet_Instance.48,3,3,0.086709 
*Boundary,op=NEW,amplitude=Amp-1 
Leaflet_Instance.49,1,1,-0.641906 
Leaflet_Instance.49,2,2,-0.348880 
Leaflet_Instance.49,3,3,0.013224 
*Boundary,op=NEW,amplitude=Amp-1 
Leaflet_Instance.1521,1,1,0.002038 
Leaflet_Instance.1521,2,2,-0.001880 
Leaflet_Instance.1521,3,3,0.028201 
*Boundary,op=NEW,amplitude=Amp-1 
Leaflet_Instance.1522,1,1,-0.574208 
Leaflet_Instance.1522,2,2,-0.347512 
Leaflet_Instance.1522,3,3,-0.068843 
*Boundary,op=NEW,amplitude=Amp-1 
Leaflet_Instance.1523,1,1,-0.574208 
Leaflet_Instance.1523,2,2,-0.347512 
Leaflet_Instance.1523,3,3,-0.068843 
*Boundary,op=NEW,amplitude=Amp-1 
Leaflet_Instance.1524,1,1,-0.521010 
Leaflet_Instance.1524,2,2,-0.308411 
Leaflet_Instance.1524,3,3,-0.157946 
*Boundary,op=NEW,amplitude=Amp-1 
Leaflet_Instance.1525,1,1,-0.521010 
Leaflet_Instance.1525,2,2,-0.308411 
Leaflet_Instance.1525,3,3,-0.157946 
*Boundary,op=NEW,amplitude=Amp-1 
Leaflet_Instance.1526,1,1,-0.521010 
Leaflet_Instance.1526,2,2,-0.308411 
Leaflet_Instance.1526,3,3,-0.157946 
*Boundary,op=NEW,amplitude=Amp-1 
Leaflet_Instance.1527,1,1,-0.480611 
Leaflet_Instance.1527,2,2,-0.267050 
Leaflet_Instance.1527,3,3,-0.246563 
*Boundary,op=NEW,amplitude=Amp-1 
Leaflet_Instance.1528,1,1,-0.480611 
Leaflet_Instance.1528,2,2,-0.267050 
Leaflet_Instance.1528,3,3,-0.246563 
*Boundary,op=NEW,amplitude=Amp-1 
Leaflet_Instance.1529,1,1,-0.452044 
Leaflet_Instance.1529,2,2,-0.223690 
Leaflet_Instance.1529,3,3,-0.334207 
*Boundary,op=NEW,amplitude=Amp-1 
Leaflet_Instance.1530,1,1,-0.452044 
Leaflet_Instance.1530,2,2,-0.223690 
Leaflet_Instance.1530,3,3,-0.334207 
*Boundary,op=NEW,amplitude=Amp-1 
Leaflet_Instance.1531,1,1,-0.452044 
Leaflet_Instance.1531,2,2,-0.223690 
Leaflet_Instance.1531,3,3,-0.334207 
*Boundary,op=NEW,amplitude=Amp-1 
Leaflet_Instance.1532,1,1,-0.434345 
Leaflet_Instance.1532,2,2,-0.178601 
Leaflet_Instance.1532,3,3,-0.420379 
*Boundary,op=NEW,amplitude=Amp-1 
Leaflet_Instance.1533,1,1,-0.434345 
Leaflet_Instance.1533,2,2,-0.178601 
Leaflet_Instance.1533,3,3,-0.420379 
*Boundary,op=NEW,amplitude=Amp-1 
Leaflet_Instance.1534,1,1,-0.426549 
Leaflet_Instance.1534,2,2,-0.132053 
Leaflet_Instance.1534,3,3,-0.504574 
*Boundary,op=NEW,amplitude=Amp-1 
Leaflet_Instance.1535,1,1,-0.426549 
Leaflet_Instance.1535,2,2,-0.132053 
Leaflet_Instance.1535,3,3,-0.504574 
*Boundary,op=NEW,amplitude=Amp-1 
Leaflet_Instance.1536,1,1,-0.426549 
Leaflet_Instance.1536,2,2,-0.132053 
Leaflet_Instance.1536,3,3,-0.504574 
*Boundary,op=NEW,amplitude=Amp-1 
Leaflet_Instance.1537,1,1,-0.427691 
Leaflet_Instance.1537,2,2,-0.084301 
Leaflet_Instance.1537,3,3,-0.586318 
*Boundary,op=NEW,amplitude=Amp-1 
Leaflet_Instance.1538,1,1,-0.427691 
Leaflet_Instance.1538,2,2,-0.084301 
Leaflet_Instance.1538,3,3,-0.586318 
*Boundary,op=NEW,amplitude=Amp-1 
Leaflet_Instance.1539,1,1,-0.427691 
Leaflet_Instance.1539,2,2,-0.084301 
Leaflet_Instance.1539,3,3,-0.586318 
*Boundary,op=NEW,amplitude=Amp-1 
Leaflet_Instance.1540,1,1,-0.436804 
Leaflet_Instance.1540,2,2,-0.035612 
Leaflet_Instance.1540,3,3,-0.665115 
*Boundary,op=NEW,amplitude=Amp-1 
Leaflet_Instance.1541,1,1,-0.436804 
Leaflet_Instance.1541,2,2,-0.035612 
Leaflet_Instance.1541,3,3,-0.665115 
*Boundary,op=NEW,amplitude=Amp-1 
Leaflet_Instance.1542,1,1,-0.436804 
Leaflet_Instance.1542,2,2,-0.035612 
Leaflet_Instance.1542,3,3,-0.665115 
*Boundary,op=NEW,amplitude=Amp-1 
Leaflet_Instance.1543,1,1,-0.452923 
Leaflet_Instance.1543,2,2,0.013741 
Leaflet_Instance.1543,3,3,-0.740458 
*Boundary,op=NEW,amplitude=Amp-1 
Leaflet_Instance.1544,1,1,-0.452923 
Leaflet_Instance.1544,2,2,0.013741 
Leaflet_Instance.1544,3,3,-0.740458 
*Boundary,op=NEW,amplitude=Amp-1 
Leaflet_Instance.1545,1,1,-0.452923 
Leaflet_Instance.1545,2,2,0.013741 
Leaflet_Instance.1545,3,3,-0.740458 
*Boundary,op=NEW,amplitude=Amp-1 
Leaflet_Instance.1546,1,1,-0.475085 
Leaflet_Instance.1546,2,2,0.063501 
Leaflet_Instance.1546,3,3,-0.811865 
*Boundary,op=NEW,amplitude=Amp-1 
Leaflet_Instance.1547,1,1,-0.475085 
Leaflet_Instance.1547,2,2,0.063501 
Leaflet_Instance.1547,3,3,-0.811865 
*Boundary,op=NEW,amplitude=Amp-1 
Leaflet_Instance.1548,1,1,-0.475085 
Leaflet_Instance.1548,2,2,0.063501 
Leaflet_Instance.1548,3,3,-0.811865 
*Boundary,op=NEW,amplitude=Amp-1 
Leaflet_Instance.1549,1,1,-0.502324 
Leaflet_Instance.1549,2,2,0.113399 
Leaflet_Instance.1549,3,3,-0.878840 
*Boundary,op=NEW,amplitude=Amp-1 
Leaflet_Instance.1550,1,1,-0.502324 
Leaflet_Instance.1550,2,2,0.113399 
Leaflet_Instance.1550,3,3,-0.878840 
*Boundary,op=NEW,amplitude=Amp-1 
Leaflet_Instance.1551,1,1,-0.502324 
Leaflet_Instance.1551,2,2,0.113399 
Leaflet_Instance.1551,3,3,-0.878840 
*Boundary,op=NEW,amplitude=Amp-1 
Leaflet_Instance.1552,1,1,-0.533673 
Leaflet_Instance.1552,2,2,0.163169 
Leaflet_Instance.1552,3,3,-0.940885 
*Boundary,op=NEW,amplitude=Amp-1 
Leaflet_Instance.1553,1,1,-0.533673 
Leaflet_Instance.1553,2,2,0.163169 
Leaflet_Instance.1553,3,3,-0.940885 
*Boundary,op=NEW,amplitude=Amp-1 
Leaflet_Instance.1554,1,1,-0.533673 
Leaflet_Instance.1554,2,2,0.163169 
Leaflet_Instance.1554,3,3,-0.940885 
*Boundary,op=NEW,amplitude=Amp-1 
Leaflet_Instance.1555,1,1,-0.568170 
Leaflet_Instance.1555,2,2,0.212550 
Leaflet_Instance.1555,3,3,-0.997513 
*Boundary,op=NEW,amplitude=Amp-1 
Leaflet_Instance.1556,1,1,-0.568170 
Leaflet_Instance.1556,2,2,0.212550 
Leaflet_Instance.1556,3,3,-0.997513 
*Boundary,op=NEW,amplitude=Amp-1 
Leaflet_Instance.1557,1,1,-0.568170 
Leaflet_Instance.1557,2,2,0.212550 
Leaflet_Instance.1557,3,3,-0.997513 
*Boundary,op=NEW,amplitude=Amp-1 
Leaflet_Instance.1558,1,1,-0.604846 
Leaflet_Instance.1558,2,2,0.261270 
Leaflet_Instance.1558,3,3,-1.048224 
*Boundary,op=NEW,amplitude=Amp-1 
Leaflet_Instance.1559,1,1,-0.604846 
Leaflet_Instance.1559,2,2,0.261270 
Leaflet_Instance.1559,3,3,-1.048224 
*Boundary,op=NEW,amplitude=Amp-1 
Leaflet_Instance.1560,1,1,-0.604846 
Leaflet_Instance.1560,2,2,0.261270 
Leaflet_Instance.1560,3,3,-1.048224 
*Boundary,op=NEW,amplitude=Amp-1 
Leaflet_Instance.1561,1,1,-0.642736 
Leaflet_Instance.1561,2,2,0.309066 
Leaflet_Instance.1561,3,3,-1.092525 
*Boundary,op=NEW,amplitude=Amp-1 
Leaflet_Instance.1562,1,1,-0.642736 
Leaflet_Instance.1562,2,2,0.309066 
Leaflet_Instance.1562,3,3,-1.092525 
*Boundary,op=NEW,amplitude=Amp-1 
Leaflet_Instance.1563,1,1,-0.642736 
Leaflet_Instance.1563,2,2,0.309066 
Leaflet_Instance.1563,3,3,-1.092525 
*Boundary,op=NEW,amplitude=Amp-1 
Leaflet_Instance.1564,1,1,-0.680881 
Leaflet_Instance.1564,2,2,0.355678 
Leaflet_Instance.1564,3,3,-1.129928 
*Boundary,op=NEW,amplitude=Amp-1 
Leaflet_Instance.1565,1,1,-0.680881 
Leaflet_Instance.1565,2,2,0.355678 
Leaflet_Instance.1565,3,3,-1.129928 
*Boundary,op=NEW,amplitude=Amp-1 
Leaflet_Instance.1566,1,1,-0.680881 
Leaflet_Instance.1566,2,2,0.355678 
Leaflet_Instance.1566,3,3,-1.129928 
*Boundary,op=NEW,amplitude=Amp-1 
Leaflet_Instance.1567,1,1,-0.718309 
Leaflet_Instance.1567,2,2,0.400835 
Leaflet_Instance.1567,3,3,-1.159935 
*Boundary,op=NEW,amplitude=Amp-1 
Leaflet_Instance.1568,1,1,-0.718309 
Leaflet_Instance.1568,2,2,0.400835 
Leaflet_Instance.1568,3,3,-1.159935 
*Boundary,op=NEW,amplitude=Amp-1 
Leaflet_Instance.1569,1,1,-0.718309 
Leaflet_Instance.1569,2,2,0.400835 
Leaflet_Instance.1569,3,3,-1.159935 
*Boundary,op=NEW,amplitude=Amp-1 
Leaflet_Instance.1570,1,1,-0.754055 
Leaflet_Instance.1570,2,2,0.444271 
Leaflet_Instance.1570,3,3,-1.182051 
*Boundary,op=NEW,amplitude=Amp-1 
Leaflet_Instance.1571,1,1,-0.754055 
Leaflet_Instance.1571,2,2,0.444271 
Leaflet_Instance.1571,3,3,-1.182051 
*Boundary,op=NEW,amplitude=Amp-1 
Leaflet_Instance.1572,1,1,-0.754055 
Leaflet_Instance.1572,2,2,0.444271 
Leaflet_Instance.1572,3,3,-1.182051 
*Boundary,op=NEW,amplitude=Amp-1 
Leaflet_Instance.1573,1,1,-0.787159 
Leaflet_Instance.1573,2,2,0.485726 
Leaflet_Instance.1573,3,3,-1.195787 
*Boundary,op=NEW,amplitude=Amp-1 
Leaflet_Instance.1574,1,1,-0.787159 
Leaflet_Instance.1574,2,2,0.485726 
Leaflet_Instance.1574,3,3,-1.195787 
*Boundary,op=NEW,amplitude=Amp-1 
Leaflet_Instance.1575,1,1,-0.787159 
Leaflet_Instance.1575,2,2,0.485726 
Leaflet_Instance.1575,3,3,-1.195787 
*Boundary,op=NEW,amplitude=Amp-1 
Leaflet_Instance.1576,1,1,-0.816652 
Leaflet_Instance.1576,2,2,0.524931 
Leaflet_Instance.1576,3,3,-1.200647 
*Boundary,op=NEW,amplitude=Amp-1 
Leaflet_Instance.1577,1,1,-0.816652 
Leaflet_Instance.1577,2,2,0.524931 
Leaflet_Instance.1577,3,3,-1.200647 
*Boundary,op=NEW,amplitude=Amp-1 
Leaflet_Instance.1578,1,1,-0.816652 
Leaflet_Instance.1578,2,2,0.524931 
Leaflet_Instance.1578,3,3,-1.200647 
*Boundary,op=NEW,amplitude=Amp-1 
Leaflet_Instance.1579,1,1,-0.841570 
Leaflet_Instance.1579,2,2,0.561621 
Leaflet_Instance.1579,3,3,-1.196138 
*Boundary,op=NEW,amplitude=Amp-1 
Leaflet_Instance.1580,1,1,-0.841570 
Leaflet_Instance.1580,2,2,0.561621 
Leaflet_Instance.1580,3,3,-1.196138 
*Boundary,op=NEW,amplitude=Amp-1 
Leaflet_Instance.1581,1,1,-0.841570 
Leaflet_Instance.1581,2,2,0.561621 
Leaflet_Instance.1581,3,3,-1.196138 
*Boundary,op=NEW,amplitude=Amp-1 
Leaflet_Instance.1582,1,1,-0.860467 
Leaflet_Instance.1582,2,2,0.594602 
Leaflet_Instance.1582,3,3,-1.182660 
*Boundary,op=NEW,amplitude=Amp-1 
Leaflet_Instance.1583,1,1,-0.860467 
Leaflet_Instance.1583,2,2,0.594602 
Leaflet_Instance.1583,3,3,-1.182660 
*Boundary,op=NEW,amplitude=Amp-1 
Leaflet_Instance.1584,1,1,-0.860467 
Leaflet_Instance.1584,2,2,0.594602 
Leaflet_Instance.1584,3,3,-1.182660 
*Boundary,op=NEW,amplitude=Amp-1 
Leaflet_Instance.1585,1,1,-0.870970 
Leaflet_Instance.1585,2,2,0.620468 
Leaflet_Instance.1585,3,3,-1.163010 
*Boundary,op=NEW,amplitude=Amp-1 
Leaflet_Instance.1586,1,1,-0.870970 
Leaflet_Instance.1586,2,2,0.620468 
Leaflet_Instance.1586,3,3,-1.163010 
*Boundary,op=NEW,amplitude=Amp-1 
Leaflet_Instance.1587,1,1,-0.870970 
Leaflet_Instance.1587,2,2,0.620468 
Leaflet_Instance.1587,3,3,-1.163010 
*Boundary,op=NEW,amplitude=Amp-1 
Leaflet_Instance.1588,1,1,-0.871876 
Leaflet_Instance.1588,2,2,0.636946 
Leaflet_Instance.1588,3,3,-1.139624 
*Boundary,op=NEW,amplitude=Amp-1 
Leaflet_Instance.1589,1,1,-0.871876 
Leaflet_Instance.1589,2,2,0.636946 
Leaflet_Instance.1589,3,3,-1.139624 
*Boundary,op=NEW,amplitude=Amp-1 
Leaflet_Instance.1590,1,1,-0.871876 
Leaflet_Instance.1590,2,2,0.636946 
Leaflet_Instance.1590,3,3,-1.139624 
*Boundary,op=NEW,amplitude=Amp-1 
Leaflet_Instance.1591,1,1,-0.863781 
Leaflet_Instance.1591,2,2,0.644462 
Leaflet_Instance.1591,3,3,-1.112845 
*Boundary,op=NEW,amplitude=Amp-1 
Leaflet_Instance.1592,1,1,-0.863781 
Leaflet_Instance.1592,2,2,0.644462 
Leaflet_Instance.1592,3,3,-1.112845 
*Boundary,op=NEW,amplitude=Amp-1 
Leaflet_Instance.1593,1,1,-0.863781 
Leaflet_Instance.1593,2,2,0.644462 
Leaflet_Instance.1593,3,3,-1.112845 
*Boundary,op=NEW,amplitude=Amp-1 
Leaflet_Instance.1594,1,1,-0.847464 
Leaflet_Instance.1594,2,2,0.643728 
Leaflet_Instance.1594,3,3,-1.082786 
*Boundary,op=NEW,amplitude=Amp-1 
Leaflet_Instance.1595,1,1,-0.847464 
Leaflet_Instance.1595,2,2,0.643728 
Leaflet_Instance.1595,3,3,-1.082786 
*Boundary,op=NEW,amplitude=Amp-1 
Leaflet_Instance.1596,1,1,-0.847464 
Leaflet_Instance.1596,2,2,0.643728 
Leaflet_Instance.1596,3,3,-1.082786 
*Boundary,op=NEW,amplitude=Amp-1 
Leaflet_Instance.1597,1,1,-0.823702 
Leaflet_Instance.1597,2,2,0.635456 
Leaflet_Instance.1597,3,3,-1.049557 
*Boundary,op=NEW,amplitude=Amp-1 
Leaflet_Instance.1598,1,1,-0.823702 
Leaflet_Instance.1598,2,2,0.635456 
Leaflet_Instance.1598,3,3,-1.049557 
*Boundary,op=NEW,amplitude=Amp-1 
Leaflet_Instance.1599,1,1,-0.823702 
Leaflet_Instance.1599,2,2,0.635456 
Leaflet_Instance.1599,3,3,-1.049557 
*Boundary,op=NEW,amplitude=Amp-1 
Leaflet_Instance.1600,1,1,-0.793273 
Leaflet_Instance.1600,2,2,0.620358 
Leaflet_Instance.1600,3,3,-1.013266 
*Boundary,op=NEW,amplitude=Amp-1 
Leaflet_Instance.1601,1,1,-0.793273 
Leaflet_Instance.1601,2,2,0.620358 
Leaflet_Instance.1601,3,3,-1.013266 
*Boundary,op=NEW,amplitude=Amp-1 
Leaflet_Instance.1602,1,1,-0.793273 
Leaflet_Instance.1602,2,2,0.620358 
Leaflet_Instance.1602,3,3,-1.013266 
*Boundary,op=NEW,amplitude=Amp-1 
Leaflet_Instance.1603,1,1,-0.756958 
Leaflet_Instance.1603,2,2,0.599147 
Leaflet_Instance.1603,3,3,-0.974028 
*Boundary,op=NEW,amplitude=Amp-1 
Leaflet_Instance.1604,1,1,-0.756958 
Leaflet_Instance.1604,2,2,0.599147 
Leaflet_Instance.1604,3,3,-0.974028 
*Boundary,op=NEW,amplitude=Amp-1 
Leaflet_Instance.1605,1,1,-0.756958 
Leaflet_Instance.1605,2,2,0.599147 
Leaflet_Instance.1605,3,3,-0.974028 
*Boundary,op=NEW,amplitude=Amp-1 
Leaflet_Instance.1606,1,1,-0.756958 
Leaflet_Instance.1606,2,2,0.599147 
Leaflet_Instance.1606,3,3,-0.974028 
*Boundary,op=NEW,amplitude=Amp-1 
Leaflet_Instance.1607,1,1,-0.715534 
Leaflet_Instance.1607,2,2,0.572536 
Leaflet_Instance.1607,3,3,-0.931954 
*Boundary,op=NEW,amplitude=Amp-1 
Leaflet_Instance.1608,1,1,-0.715534 
Leaflet_Instance.1608,2,2,0.572536 
Leaflet_Instance.1608,3,3,-0.931954 
*Boundary,op=NEW,amplitude=Amp-1 
Leaflet_Instance.1609,1,1,-0.715534 
Leaflet_Instance.1609,2,2,0.572536 
Leaflet_Instance.1609,3,3,-0.931954 
*Boundary,op=NEW,amplitude=Amp-1 
Leaflet_Instance.1610,1,1,-0.669778 
Leaflet_Instance.1610,2,2,0.541234 
Leaflet_Instance.1610,3,3,-0.887150 
*Boundary,op=NEW,amplitude=Amp-1 
Leaflet_Instance.1611,1,1,-0.669778 
Leaflet_Instance.1611,2,2,0.541234 
Leaflet_Instance.1611,3,3,-0.887150 
*Boundary,op=NEW,amplitude=Amp-1 
Leaflet_Instance.1612,1,1,-0.669778 
Leaflet_Instance.1612,2,2,0.541234 
Leaflet_Instance.1612,3,3,-0.887150 
*Boundary,op=NEW,amplitude=Amp-1 
Leaflet_Instance.1613,1,1,-0.620474 
Leaflet_Instance.1613,2,2,0.505959 
Leaflet_Instance.1613,3,3,-0.839736 
*Boundary,op=NEW,amplitude=Amp-1 
Leaflet_Instance.1614,1,1,-0.620474 
Leaflet_Instance.1614,2,2,0.505959 
Leaflet_Instance.1614,3,3,-0.839736 
*Boundary,op=NEW,amplitude=Amp-1 
Leaflet_Instance.1615,1,1,-0.620474 
Leaflet_Instance.1615,2,2,0.505959 
Leaflet_Instance.1615,3,3,-0.839736 
*Boundary,op=NEW,amplitude=Amp-1 
Leaflet_Instance.1616,1,1,-0.568399 
Leaflet_Instance.1616,2,2,0.467421 
Leaflet_Instance.1616,3,3,-0.789820 
*Boundary,op=NEW,amplitude=Amp-1 
Leaflet_Instance.1617,1,1,-0.568399 
Leaflet_Instance.1617,2,2,0.467421 
Leaflet_Instance.1617,3,3,-0.789820 
*Boundary,op=NEW,amplitude=Amp-1 
Leaflet_Instance.1618,1,1,-0.568399 
Leaflet_Instance.1618,2,2,0.467421 
Leaflet_Instance.1618,3,3,-0.789820 
*Boundary,op=NEW,amplitude=Amp-1 
Leaflet_Instance.1619,1,1,-0.514323 
Leaflet_Instance.1619,2,2,0.426328 
Leaflet_Instance.1619,3,3,-0.737505 
*Boundary,op=NEW,amplitude=Amp-1 
Leaflet_Instance.1620,1,1,-0.514323 
Leaflet_Instance.1620,2,2,0.426328 
Leaflet_Instance.1620,3,3,-0.737505 
*Boundary,op=NEW,amplitude=Amp-1 
Leaflet_Instance.1621,1,1,-0.514323 
Leaflet_Instance.1621,2,2,0.426328 
Leaflet_Instance.1621,3,3,-0.737505 
*Boundary,op=NEW,amplitude=Amp-1 
Leaflet_Instance.1622,1,1,-0.459035 
Leaflet_Instance.1622,2,2,0.383397 
Leaflet_Instance.1622,3,3,-0.682912 
*Boundary,op=NEW,amplitude=Amp-1 
Leaflet_Instance.1623,1,1,-0.459035 
Leaflet_Instance.1623,2,2,0.383397 
Leaflet_Instance.1623,3,3,-0.682912 
*Boundary,op=NEW,amplitude=Amp-1 
Leaflet_Instance.1624,1,1,-0.459035 
Leaflet_Instance.1624,2,2,0.383397 
Leaflet_Instance.1624,3,3,-0.682912 
*Boundary,op=NEW,amplitude=Amp-1 
Leaflet_Instance.1625,1,1,-0.459035 
Leaflet_Instance.1625,2,2,0.383397 
Leaflet_Instance.1625,3,3,-0.682912 
*Boundary,op=NEW,amplitude=Amp-1 
Leaflet_Instance.1626,1,1,-0.403314 
Leaflet_Instance.1626,2,2,0.339344 
Leaflet_Instance.1626,3,3,-0.626152 
*Boundary,op=NEW,amplitude=Amp-1 
Leaflet_Instance.1627,1,1,-0.403314 
Leaflet_Instance.1627,2,2,0.339344 
Leaflet_Instance.1627,3,3,-0.626152 
*Boundary,op=NEW,amplitude=Amp-1 
Leaflet_Instance.1628,1,1,-0.403314 
Leaflet_Instance.1628,2,2,0.339344 
Leaflet_Instance.1628,3,3,-0.626152 
*Boundary,op=NEW,amplitude=Amp-1 
Leaflet_Instance.1629,1,1,-0.347929 
Leaflet_Instance.1629,2,2,0.294872 
Leaflet_Instance.1629,3,3,-0.567329 
*Boundary,op=NEW,amplitude=Amp-1 
Leaflet_Instance.1630,1,1,-0.347929 
Leaflet_Instance.1630,2,2,0.294872 
Leaflet_Instance.1630,3,3,-0.567329 
*Boundary,op=NEW,amplitude=Amp-1 
Leaflet_Instance.1631,1,1,-0.293662 
Leaflet_Instance.1631,2,2,0.250696 
Leaflet_Instance.1631,3,3,-0.506555 
*Boundary,op=NEW,amplitude=Amp-1 
Leaflet_Instance.1632,1,1,-0.293662 
Leaflet_Instance.1632,2,2,0.250696 
Leaflet_Instance.1632,3,3,-0.506555 
*Boundary,op=NEW,amplitude=Amp-1 
Leaflet_Instance.1633,1,1,-0.293662 
Leaflet_Instance.1633,2,2,0.250696 
Leaflet_Instance.1633,3,3,-0.506555 
*Boundary,op=NEW,amplitude=Amp-1 
Leaflet_Instance.1634,1,1,-0.241296 
Leaflet_Instance.1634,2,2,0.207532 
Leaflet_Instance.1634,3,3,-0.443945 
*Boundary,op=NEW,amplitude=Amp-1 
Leaflet_Instance.1635,1,1,-0.241296 
Leaflet_Instance.1635,2,2,0.207532 
Leaflet_Instance.1635,3,3,-0.443945 
*Boundary,op=NEW,amplitude=Amp-1 
Leaflet_Instance.1636,1,1,-0.241296 
Leaflet_Instance.1636,2,2,0.207532 
Leaflet_Instance.1636,3,3,-0.443945 
*Boundary,op=NEW,amplitude=Amp-1 
Leaflet_Instance.1637,1,1,-0.191608 
Leaflet_Instance.1637,2,2,0.166092 
Leaflet_Instance.1637,3,3,-0.379611 
*Boundary,op=NEW,amplitude=Amp-1 
Leaflet_Instance.1638,1,1,-0.191608 
Leaflet_Instance.1638,2,2,0.166092 
Leaflet_Instance.1638,3,3,-0.379611 
*Boundary,op=NEW,amplitude=Amp-1 
Leaflet_Instance.1639,1,1,-0.191608 
Leaflet_Instance.1639,2,2,0.166092 
Leaflet_Instance.1639,3,3,-0.379611 
*Boundary,op=NEW,amplitude=Amp-1 
Leaflet_Instance.1640,1,1,-0.145376 
Leaflet_Instance.1640,2,2,0.127087 
Leaflet_Instance.1640,3,3,-0.313661 
*Boundary,op=NEW,amplitude=Amp-1 
Leaflet_Instance.1641,1,1,-0.145376 
Leaflet_Instance.1641,2,2,0.127087 
Leaflet_Instance.1641,3,3,-0.313661 
*Boundary,op=NEW,amplitude=Amp-1 
Leaflet_Instance.1642,1,1,-0.103375 
Leaflet_Instance.1642,2,2,0.091226 
Leaflet_Instance.1642,3,3,-0.246203 
*Boundary,op=NEW,amplitude=Amp-1 
Leaflet_Instance.1643,1,1,-0.103375 
Leaflet_Instance.1643,2,2,0.091226 
Leaflet_Instance.1643,3,3,-0.246203 
*Boundary,op=NEW,amplitude=Amp-1 
Leaflet_Instance.1644,1,1,-0.103375 
Leaflet_Instance.1644,2,2,0.091226 
Leaflet_Instance.1644,3,3,-0.246203 
*Boundary,op=NEW,amplitude=Amp-1 
Leaflet_Instance.1645,1,1,-0.066390 
Leaflet_Instance.1645,2,2,0.059228 
Leaflet_Instance.1645,3,3,-0.177357 
*Boundary,op=NEW,amplitude=Amp-1 
Leaflet_Instance.1646,1,1,-0.066390 
Leaflet_Instance.1646,2,2,0.059228 
Leaflet_Instance.1646,3,3,-0.177357 
*Boundary,op=NEW,amplitude=Amp-1 
Leaflet_Instance.1647,1,1,-0.035190 
Leaflet_Instance.1647,2,2,0.031797 
Leaflet_Instance.1647,3,3,-0.107210 
*Boundary,op=NEW,amplitude=Amp-1 
Leaflet_Instance.1648,1,1,-0.035190 
Leaflet_Instance.1648,2,2,0.031797 
Leaflet_Instance.1648,3,3,-0.107210 
*Boundary,op=NEW,amplitude=Amp-1 
Leaflet_Instance.1649,1,1,-0.010567 
Leaflet_Instance.1649,2,2,0.009655 
Leaflet_Instance.1649,3,3,-0.035909 
*Boundary,op=NEW,amplitude=Amp-1 
Leaflet_Instance.1650,1,1,-0.010567 
Leaflet_Instance.1650,2,2,0.009655 
Leaflet_Instance.1650,3,3,-0.035909 
*Boundary,op=NEW,amplitude=Amp-1 
Leaflet_Instance.6720,1,1,0.002038 
Leaflet_Instance.6720,2,2,-0.001880 
Leaflet_Instance.6720,3,3,0.028201 
*Boundary,op=NEW,amplitude=Amp-1 
Leaflet_Instance.6721,1,1,0.002038 
Leaflet_Instance.6721,2,2,-0.001880 
Leaflet_Instance.6721,3,3,0.028201 
*Boundary,op=NEW,amplitude=Amp-1 
Leaflet_Instance.6722,1,1,0.002744 
Leaflet_Instance.6722,2,2,-0.004197 
Leaflet_Instance.6722,3,3,0.083700 
*Boundary,op=NEW,amplitude=Amp-1 
Leaflet_Instance.6723,1,1,0.002744 
Leaflet_Instance.6723,2,2,-0.004197 
Leaflet_Instance.6723,3,3,0.083700 
*Boundary,op=NEW,amplitude=Amp-1 
Leaflet_Instance.6724,1,1,-0.002880 
Leaflet_Instance.6724,2,2,-0.003592 
Leaflet_Instance.6724,3,3,0.137068 
*Boundary,op=NEW,amplitude=Amp-1 
Leaflet_Instance.6725,1,1,-0.002880 
Leaflet_Instance.6725,2,2,-0.003592 
Leaflet_Instance.6725,3,3,0.137068 
*Boundary,op=NEW,amplitude=Amp-1 
Leaflet_Instance.6726,1,1,-0.014010 
Leaflet_Instance.6726,2,2,0.000001 
Leaflet_Instance.6726,3,3,0.187693 
*Boundary,op=NEW,amplitude=Amp-1 
Leaflet_Instance.6727,1,1,-0.014010 
Leaflet_Instance.6727,2,2,0.000001 
Leaflet_Instance.6727,3,3,0.187693 
*Boundary,op=NEW,amplitude=Amp-1 
Leaflet_Instance.6728,1,1,-0.029816 
Leaflet_Instance.6728,2,2,0.006648 
Leaflet_Instance.6728,3,3,0.234938 
*Boundary,op=NEW,amplitude=Amp-1 
Leaflet_Instance.6729,1,1,-0.029816 
Leaflet_Instance.6729,2,2,0.006648 
Leaflet_Instance.6729,3,3,0.234938 
*Boundary,op=NEW,amplitude=Amp-1 
Leaflet_Instance.6730,1,1,-0.049466 
Leaflet_Instance.6730,2,2,0.016413 
Leaflet_Instance.6730,3,3,0.278147 
*Boundary,op=NEW,amplitude=Amp-1 
Leaflet_Instance.6731,1,1,-0.049466 
Leaflet_Instance.6731,2,2,0.016413 
Leaflet_Instance.6731,3,3,0.278147 
*Boundary,op=NEW,amplitude=Amp-1 
Leaflet_Instance.6732,1,1,-0.049466 
Leaflet_Instance.6732,2,2,0.016413 
Leaflet_Instance.6732,3,3,0.278147 
*Boundary,op=NEW,amplitude=Amp-1 
Leaflet_Instance.6733,1,1,-0.072133 
Leaflet_Instance.6733,2,2,0.029361 
Leaflet_Instance.6733,3,3,0.316693 
*Boundary,op=NEW,amplitude=Amp-1 
Leaflet_Instance.6734,1,1,-0.072133 
Leaflet_Instance.6734,2,2,0.029361 
Leaflet_Instance.6734,3,3,0.316693 
*Boundary,op=NEW,amplitude=Amp-1 
Leaflet_Instance.6735,1,1,-0.096989 
Leaflet_Instance.6735,2,2,0.045560 
Leaflet_Instance.6735,3,3,0.349945 
*Boundary,op=NEW,amplitude=Amp-1 
Leaflet_Instance.6736,1,1,-0.096989 
Leaflet_Instance.6736,2,2,0.045560 
Leaflet_Instance.6736,3,3,0.349945 
*Boundary,op=NEW,amplitude=Amp-1 
Leaflet_Instance.6737,1,1,-0.123206 
Leaflet_Instance.6737,2,2,0.065074 
Leaflet_Instance.6737,3,3,0.377263 
*Boundary,op=NEW,amplitude=Amp-1 
Leaflet_Instance.6738,1,1,-0.123206 
Leaflet_Instance.6738,2,2,0.065074 
Leaflet_Instance.6738,3,3,0.377263 
*Boundary,op=NEW,amplitude=Amp-1 
Leaflet_Instance.6739,1,1,-0.123206 
Leaflet_Instance.6739,2,2,0.065074 
Leaflet_Instance.6739,3,3,0.377263 
*Boundary,op=NEW,amplitude=Amp-1 
Leaflet_Instance.6740,1,1,-0.149950 
Leaflet_Instance.6740,2,2,0.087964 
Leaflet_Instance.6740,3,3,0.398010 
*Boundary,op=NEW,amplitude=Amp-1 
Leaflet_Instance.6741,1,1,-0.149950 
Leaflet_Instance.6741,2,2,0.087964 
Leaflet_Instance.6741,3,3,0.398010 
*Boundary,op=NEW,amplitude=Amp-1 
Leaflet_Instance.6742,1,1,-0.176399 
Leaflet_Instance.6742,2,2,0.114303 
Leaflet_Instance.6742,3,3,0.411555 
*Boundary,op=NEW,amplitude=Amp-1 
Leaflet_Instance.6743,1,1,-0.176399 
Leaflet_Instance.6743,2,2,0.114303 
Leaflet_Instance.6743,3,3,0.411555 
*Boundary,op=NEW,amplitude=Amp-1 
Leaflet_Instance.6744,1,1,-0.201729 
Leaflet_Instance.6744,2,2,0.144147 
Leaflet_Instance.6744,3,3,0.417235 
*Boundary,op=NEW,amplitude=Amp-1 
Leaflet_Instance.6745,1,1,-0.201729 
Leaflet_Instance.6745,2,2,0.144147 
Leaflet_Instance.6745,3,3,0.417235 
*Boundary,op=NEW,amplitude=Amp-1 
Leaflet_Instance.6746,1,1,-0.201729 
Leaflet_Instance.6746,2,2,0.144147 
Leaflet_Instance.6746,3,3,0.417235 
*Boundary,op=NEW,amplitude=Amp-1 
Leaflet_Instance.6747,1,1,-0.225381 
Leaflet_Instance.6747,2,2,0.177341 
Leaflet_Instance.6747,3,3,0.414007 
*Boundary,op=NEW,amplitude=Amp-1 
Leaflet_Instance.6748,1,1,-0.225381 
Leaflet_Instance.6748,2,2,0.177341 
Leaflet_Instance.6748,3,3,0.414007 
*Boundary,op=NEW,amplitude=Amp-1 
Leaflet_Instance.6749,1,1,-0.247345 
Leaflet_Instance.6749,2,2,0.213473 
Leaflet_Instance.6749,3,3,0.401506 
*Boundary,op=NEW,amplitude=Amp-1 
Leaflet_Instance.6750,1,1,-0.247345 
Leaflet_Instance.6750,2,2,0.213473 
Leaflet_Instance.6750,3,3,0.401506 
*Boundary,op=NEW,amplitude=Amp-1 
Leaflet_Instance.6751,1,1,-0.267873 
Leaflet_Instance.6751,2,2,0.252096 
Leaflet_Instance.6751,3,3,0.380787 
*Boundary,op=NEW,amplitude=Amp-1 
Leaflet_Instance.6752,1,1,-0.267873 
Leaflet_Instance.6752,2,2,0.252096 
Leaflet_Instance.6752,3,3,0.380787 
*Boundary,op=NEW,amplitude=Amp-1 
Leaflet_Instance.6753,1,1,-0.287235 
Leaflet_Instance.6753,2,2,0.292844 
Leaflet_Instance.6753,3,3,0.353259 
*Boundary,op=NEW,amplitude=Amp-1 
Leaflet_Instance.6754,1,1,-0.287235 
Leaflet_Instance.6754,2,2,0.292844 
Leaflet_Instance.6754,3,3,0.353259 
*Boundary,op=NEW,amplitude=Amp-1 
Leaflet_Instance.6755,1,1,-0.287235 
Leaflet_Instance.6755,2,2,0.292844 
Leaflet_Instance.6755,3,3,0.353259 
*Boundary,op=NEW,amplitude=Amp-1 
Leaflet_Instance.6756,1,1,-0.305689 
Leaflet_Instance.6756,2,2,0.335332 
Leaflet_Instance.6756,3,3,0.320349 
*Boundary,op=NEW,amplitude=Amp-1 
Leaflet_Instance.6757,1,1,-0.305689 
Leaflet_Instance.6757,2,2,0.335332 
Leaflet_Instance.6757,3,3,0.320349 
*Boundary,op=NEW,amplitude=Amp-1 
Leaflet_Instance.6758,1,1,-0.323484 
Leaflet_Instance.6758,2,2,0.379150 
Leaflet_Instance.6758,3,3,0.283498 
*Boundary,op=NEW,amplitude=Amp-1 
Leaflet_Instance.6759,1,1,-0.323484 
Leaflet_Instance.6759,2,2,0.379150 
Leaflet_Instance.6759,3,3,0.283498 
*Boundary,op=NEW,amplitude=Amp-1 
Leaflet_Instance.6760,1,1,-0.340892 
Leaflet_Instance.6760,2,2,0.423944 
Leaflet_Instance.6760,3,3,0.244105 
*Boundary,op=NEW,amplitude=Amp-1 
Leaflet_Instance.6761,1,1,-0.340892 
Leaflet_Instance.6761,2,2,0.423944 
Leaflet_Instance.6761,3,3,0.244105 
*Boundary,op=NEW,amplitude=Amp-1 
Leaflet_Instance.6762,1,1,-0.358162 
Leaflet_Instance.6762,2,2,0.469300 
Leaflet_Instance.6762,3,3,0.203618 
*Boundary,op=NEW,amplitude=Amp-1 
Leaflet_Instance.6763,1,1,-0.358162 
Leaflet_Instance.6763,2,2,0.469300 
Leaflet_Instance.6763,3,3,0.203618 
*Boundary,op=NEW,amplitude=Amp-1 
Leaflet_Instance.6764,1,1,-0.358162 
Leaflet_Instance.6764,2,2,0.469300 
Leaflet_Instance.6764,3,3,0.203618 
*Boundary,op=NEW,amplitude=Amp-1 
Leaflet_Instance.6765,1,1,-0.375557 
Leaflet_Instance.6765,2,2,0.514843 
Leaflet_Instance.6765,3,3,0.163453 
*Boundary,op=NEW,amplitude=Amp-1 
Leaflet_Instance.6766,1,1,-0.375557 
Leaflet_Instance.6766,2,2,0.514843 
Leaflet_Instance.6766,3,3,0.163453 
*Boundary,op=NEW,amplitude=Amp-1 
Leaflet_Instance.6767,1,1,-0.393344 
Leaflet_Instance.6767,2,2,0.560205 
Leaflet_Instance.6767,3,3,0.125019 
*Boundary,op=NEW,amplitude=Amp-1 
Leaflet_Instance.6768,1,1,-0.393344 
Leaflet_Instance.6768,2,2,0.560205 
Leaflet_Instance.6768,3,3,0.125019 
*Boundary,op=NEW,amplitude=Amp-1 
Leaflet_Instance.6769,1,1,-0.393344 
Leaflet_Instance.6769,2,2,0.560205 
Leaflet_Instance.6769,3,3,0.125019 
*Boundary,op=NEW,amplitude=Amp-1 
Leaflet_Instance.6770,1,1,-0.411770 
Leaflet_Instance.6770,2,2,0.604973 
Leaflet_Instance.6770,3,3,0.089766 
*Boundary,op=NEW,amplitude=Amp-1 
Leaflet_Instance.6771,1,1,-0.411770 
Leaflet_Instance.6771,2,2,0.604973 
Leaflet_Instance.6771,3,3,0.089766 
*Boundary,op=NEW,amplitude=Amp-1 
Leaflet_Instance.6772,1,1,-0.431088 
Leaflet_Instance.6772,2,2,0.648747 
Leaflet_Instance.6772,3,3,0.059123 
*Boundary,op=NEW,amplitude=Amp-1 
Leaflet_Instance.6773,1,1,-0.431088 
Leaflet_Instance.6773,2,2,0.648747 
Leaflet_Instance.6773,3,3,0.059123 
*Boundary,op=NEW,amplitude=Amp-1 
Leaflet_Instance.6774,1,1,-0.451575 
Leaflet_Instance.6774,2,2,0.691178 
Leaflet_Instance.6774,3,3,0.034492 
*Boundary,op=NEW,amplitude=Amp-1 
Leaflet_Instance.6775,1,1,-0.451575 
Leaflet_Instance.6775,2,2,0.691178 
Leaflet_Instance.6775,3,3,0.034492 
*Boundary,op=NEW,amplitude=Amp-1 
Leaflet_Instance.6776,1,1,-0.451575 
Leaflet_Instance.6776,2,2,0.691178 
Leaflet_Instance.6776,3,3,0.034492 
*Boundary,op=NEW,amplitude=Amp-1 
Leaflet_Instance.6777,1,1,-0.473493 
Leaflet_Instance.6777,2,2,0.731889 
Leaflet_Instance.6777,3,3,0.017291 
*Boundary,op=NEW,amplitude=Amp-1 
Leaflet_Instance.6778,1,1,-0.473493 
Leaflet_Instance.6778,2,2,0.731889 
Leaflet_Instance.6778,3,3,0.017291 
*Boundary,op=NEW,amplitude=Amp-1 
Leaflet_Instance.6779,1,1,-0.497073 
Leaflet_Instance.6779,2,2,0.770443 
Leaflet_Instance.6779,3,3,0.008968 
*Boundary,op=NEW,amplitude=Amp-1 
Leaflet_Instance.6780,1,1,-0.497073 
Leaflet_Instance.6780,2,2,0.770443 
Leaflet_Instance.6780,3,3,0.008968 
*Boundary,op=NEW,amplitude=Amp-1 
Leaflet_Instance.6781,1,1,-0.522596 
Leaflet_Instance.6781,2,2,0.806491 
Leaflet_Instance.6781,3,3,0.010932 
*Boundary,op=NEW,amplitude=Amp-1 
Leaflet_Instance.6782,1,1,-0.522596 
Leaflet_Instance.6782,2,2,0.806491 
Leaflet_Instance.6782,3,3,0.010932 
*Boundary,op=NEW,amplitude=Amp-1 
Leaflet_Instance.6783,1,1,-0.550342 
Leaflet_Instance.6783,2,2,0.839669 
Leaflet_Instance.6783,3,3,0.024625 
*Boundary,op=NEW,amplitude=Amp-1 
Leaflet_Instance.6784,1,1,-0.564805 
Leaflet_Instance.6784,2,2,0.855493 
Leaflet_Instance.6784,3,3,0.034586 
*Boundary,op=NEW,amplitude=Amp-1 
Leaflet_Instance.8588,1,1,0.000000 
Leaflet_Instance.8588,2,2,0.000000 
Leaflet_Instance.8588,3,3,0.000000 
*Boundary,op=NEW,amplitude=Amp-1 
Leaflet_Instance.8598,1,1,0.000000 
Leaflet_Instance.8598,2,2,0.000000 
Leaflet_Instance.8598,3,3,0.000000 
*Boundary,op=NEW,amplitude=Amp-1 
Leaflet_Instance.8608,1,1,0.000000 
Leaflet_Instance.8608,2,2,0.000000 
Leaflet_Instance.8608,3,3,0.000000 
*Boundary,op=NEW,amplitude=Amp-1 
Leaflet_Instance.10262,1,1,0.000000 
Leaflet_Instance.10262,2,2,0.000000 
Leaflet_Instance.10262,3,3,0.000000 
*Boundary,op=NEW,amplitude=Amp-1 
Leaflet_Instance.10271,1,1,0.000000 
Leaflet_Instance.10271,2,2,0.000000 
Leaflet_Instance.10271,3,3,0.000000 
*Boundary,op=NEW,amplitude=Amp-1 
Leaflet_Instance.10280,1,1,0.000000 
Leaflet_Instance.10280,2,2,0.000000 
Leaflet_Instance.10280,3,3,0.000000 
*Boundary,op=NEW,amplitude=Amp-1 
Leaflet_Instance.10289,1,1,0.000000 
Leaflet_Instance.10289,2,2,0.000000 
Leaflet_Instance.10289,3,3,0.000000 
*Boundary,op=NEW,amplitude=Amp-1 
Leaflet_Instance.10298,1,1,0.000000 
Leaflet_Instance.10298,2,2,0.000000 
Leaflet_Instance.10298,3,3,0.000000 
*Boundary,op=NEW,amplitude=Amp-1 
Leaflet_Instance.10307,1,1,0.000000 
Leaflet_Instance.10307,2,2,0.000000 
Leaflet_Instance.10307,3,3,0.000000 
*Boundary,op=NEW,amplitude=Amp-1 
Leaflet_Instance.10316,1,1,0.000000 
Leaflet_Instance.10316,2,2,0.000000 
Leaflet_Instance.10316,3,3,0.000000 
*Boundary,op=NEW,amplitude=Amp-1 
Leaflet_Instance.10325,1,1,0.000000 
Leaflet_Instance.10325,2,2,0.000000 
Leaflet_Instance.10325,3,3,0.000000 
*Boundary,op=NEW,amplitude=Amp-1 
Leaflet_Instance.10334,1,1,0.000000 
Leaflet_Instance.10334,2,2,0.000000 
Leaflet_Instance.10334,3,3,0.000000 
*Boundary,op=NEW,amplitude=Amp-1 
Leaflet_Instance.10343,1,1,0.000000 
Leaflet_Instance.10343,2,2,0.000000 
Leaflet_Instance.10343,3,3,0.000000 
*Boundary,op=NEW,amplitude=Amp-1 
Leaflet_Instance.10352,1,1,0.000000 
Leaflet_Instance.10352,2,2,0.000000 
Leaflet_Instance.10352,3,3,0.000000 
*Boundary,op=NEW,amplitude=Amp-1 
Leaflet_Instance.10361,1,1,0.000000 
Leaflet_Instance.10361,2,2,0.000000 
Leaflet_Instance.10361,3,3,0.000000 
*Boundary,op=NEW,amplitude=Amp-1 
Leaflet_Instance.10370,1,1,0.000000 
Leaflet_Instance.10370,2,2,0.000000 
Leaflet_Instance.10370,3,3,0.000000 
*Boundary,op=NEW,amplitude=Amp-1 
Leaflet_Instance.10379,1,1,0.000000 
Leaflet_Instance.10379,2,2,0.000000 
Leaflet_Instance.10379,3,3,0.000000 
*Boundary,op=NEW,amplitude=Amp-1 
Leaflet_Instance.10388,1,1,0.000000 
Leaflet_Instance.10388,2,2,0.000000 
Leaflet_Instance.10388,3,3,0.000000 
*Boundary,op=NEW,amplitude=Amp-1 
Leaflet_Instance.10397,1,1,0.000000 
Leaflet_Instance.10397,2,2,0.000000 
Leaflet_Instance.10397,3,3,0.000000 
*Boundary,op=NEW,amplitude=Amp-1 
Leaflet_Instance.10406,1,1,0.000000 
Leaflet_Instance.10406,2,2,0.000000 
Leaflet_Instance.10406,3,3,0.000000 
*Boundary,op=NEW,amplitude=Amp-1 
Leaflet_Instance.10415,1,1,0.000000 
Leaflet_Instance.10415,2,2,0.000000 
Leaflet_Instance.10415,3,3,0.000000 
*Boundary,op=NEW,amplitude=Amp-1 
Leaflet_Instance.10424,1,1,0.000000 
Leaflet_Instance.10424,2,2,0.000000 
Leaflet_Instance.10424,3,3,0.000000 
*Boundary,op=NEW,amplitude=Amp-1 
Leaflet_Instance.10433,1,1,0.000000 
Leaflet_Instance.10433,2,2,0.000000 
Leaflet_Instance.10433,3,3,0.000000 
*Boundary,op=NEW,amplitude=Amp-1 
Leaflet_Instance.10442,1,1,0.000000 
Leaflet_Instance.10442,2,2,0.000000 
Leaflet_Instance.10442,3,3,0.000000 
*Boundary,op=NEW,amplitude=Amp-1 
Leaflet_Instance.10451,1,1,0.000000 
Leaflet_Instance.10451,2,2,0.000000 
Leaflet_Instance.10451,3,3,0.000000 
*Boundary,op=NEW,amplitude=Amp-1 
Leaflet_Instance.10460,1,1,0.000000 
Leaflet_Instance.10460,2,2,0.000000 
Leaflet_Instance.10460,3,3,0.000000 
*Boundary,op=NEW,amplitude=Amp-1 
Leaflet_Instance.10469,1,1,0.000000 
Leaflet_Instance.10469,2,2,0.000000 
Leaflet_Instance.10469,3,3,0.000000 
*Boundary,op=NEW,amplitude=Amp-1 
Leaflet_Instance.10478,1,1,0.000000 
Leaflet_Instance.10478,2,2,0.000000 
Leaflet_Instance.10478,3,3,0.000000 
*Boundary,op=NEW,amplitude=Amp-1 
Leaflet_Instance.10487,1,1,0.000000 
Leaflet_Instance.10487,2,2,0.000000 
Leaflet_Instance.10487,3,3,0.000000 
*Boundary,op=NEW,amplitude=Amp-1 
Leaflet_Instance.10496,1,1,0.000000 
Leaflet_Instance.10496,2,2,0.000000 
Leaflet_Instance.10496,3,3,0.000000 
*Boundary,op=NEW,amplitude=Amp-1 
Leaflet_Instance.10505,1,1,0.000000 
Leaflet_Instance.10505,2,2,0.000000 
Leaflet_Instance.10505,3,3,0.000000 
*Boundary,op=NEW,amplitude=Amp-1 
Leaflet_Instance.10514,1,1,0.000000 
Leaflet_Instance.10514,2,2,0.000000 
Leaflet_Instance.10514,3,3,0.000000 
*Dsload,op=NEW,amplitude=Amp-1 
Leaflet_Surfaces, P, 0.003060
*Contact, op=NEW
*Contact Inclusions
LEAFLET_SURFACES, 
*Contact Property Assignment
 ,  , INTERACTION_PROPERTY
*Output, field, variable=PRESELECT 
*ELEMENT OUTPUT, ELSET=LEAFLET_INSTANCE.LEAFLET_ELEMENTS 
1,5 
S,LE,STH,COORD 
*NODE OUTPUT, NSET=LEAFLET_INSTANCE.LEAFLET_NODES
COORD 
*CONTACT OUTPUT
CFORCE,CSTRESS,CTHICK
*Output, history, variable=PRESELECT 
*End Step
