**  BEGIN USER HEADER
**  ABAQUS INPUT FILE: Diseased_QuasiStatic.inp
**  FILE CREATED ON: 22-Jan-2024 08:54:54 USING Write_Abaqus_File.m 
**  FILE CREATED BY: ch49693
**  STUDY NUMBER: 10
**  ITERATION: 11
**  MESH FILE: OCS13_mesh_dilated.inp
**  END OF USER HEADER
**  
**  BEGIN MODEL DATA
*PART, NAME=Leaflet 
*NODE, NSET=Leaflet_Nodes 
1,-1.182855e+01,9.711896e+00,1.297155e+00 
2,-1.792327e+01,-1.098434e+01,3.710270e-01 
3,-1.216050e+01,9.502022e+00,1.371186e+00 
4,-1.248809e+01,9.282184e+00,1.434970e+00 
5,-1.281072e+01,9.052514e+00,1.488570e+00 
6,-1.312780e+01,8.813220e+00,1.532286e+00 
7,-1.343877e+01,8.564536e+00,1.566492e+00 
8,-1.374309e+01,8.306719e+00,1.591578e+00 
9,-1.404029e+01,8.040035e+00,1.607953e+00 
10,-1.432991e+01,7.764773e+00,1.616083e+00 
11,-1.461154e+01,7.481225e+00,1.616465e+00 
12,-1.488482e+01,7.189693e+00,1.609616e+00 
13,-1.514939e+01,6.890473e+00,1.596072e+00 
14,-1.540498e+01,6.583867e+00,1.576386e+00 
15,-1.565129e+01,6.270165e+00,1.551122e+00 
16,-1.588809e+01,5.949656e+00,1.520847e+00 
17,-1.611516e+01,5.622616e+00,1.486136e+00 
18,-1.633231e+01,5.289333e+00,1.447563e+00 
19,-1.653937e+01,4.950081e+00,1.405708e+00 
20,-1.673610e+01,4.605073e+00,1.361139e+00 
** ... 10863 like lines cut
*NODE, NSET=Chordae_Nodes 
10884,-1.792327e+01,-1.098434e+01,-2.535352e+01 
10885,-1.824595e+01,-1.109772e+01,-2.322602e+01 
10886,-1.852971e+01,-1.119743e+01,-2.109852e+01 
10887,-1.874032e+01,-1.127144e+01,-1.897101e+01 
10888,-1.885239e+01,-1.131082e+01,-1.684351e+01 
10889,-1.885239e+01,-1.131082e+01,-1.471601e+01 
10890,-1.874032e+01,-1.127144e+01,-1.258850e+01 
10891,-1.852971e+01,-1.119743e+01,-1.046100e+01 
10892,-1.824595e+01,-1.109773e+01,-8.333497e+00 
10893,-1.792327e+01,-1.098434e+01,-6.205994e+00 
10894,-9.255000e+00,9.966000e+00,-2.310804e+01 
10895,-9.362133e+00,1.022733e+01,-2.132934e+01 
10896,-9.490834e+00,1.045373e+01,-1.955474e+01 
10897,-9.660069e+00,1.061450e+01,-1.778785e+01 
10898,-9.883916e+00,1.068683e+01,-1.603133e+01 
10899,-1.016987e+01,1.065859e+01,-1.428663e+01 
10900,-1.051792e+01,1.052980e+01,-1.255373e+01 
10901,-1.092058e+01,1.031256e+01,-1.083121e+01 
10902,-1.136378e+01,1.002969e+01,-9.116397e+00 
10903,-1.182855e+01,9.711896e+00,-7.405685e+00 
** ... 2361 like lines cut
*ELEMENT, TYPE=S4R, ELSET=Anterior_Leaflet_Elements 
1,82,1969,2204,190 
2,1969,1970,2205,2204 
3,1970,1971,2206,2205 
4,1971,1972,2207,2206 
5,1972,1973,2208,2207 
6,1973,1974,2209,2208 
7,1974,1975,2210,2209 
8,1975,1976,2211,2210 
9,1976,1977,2212,2211 
10,1977,1978,2213,2212 
11,1978,1979,2214,2213 
12,1979,1980,2215,2214 
13,1980,1981,2216,2215 
14,1981,1982,2217,2216 
15,1982,1983,2218,2217 
16,1983,1984,2219,2218 
17,1984,1985,2220,2219 
18,1985,1986,2221,2220 
19,1986,1987,2222,2221 
20,1987,1988,2223,2222 
** ... 6596 like lines cut
*ELEMENT, TYPE=S4R, ELSET=Septal_Leaflet_Elements 
6617,8792,60,81,8793 
6618,8791,8792,8793,8794 
6619,8790,8791,8794,8795 
6620,8789,8790,8795,8796 
6621,8788,8789,8796,8797 
6622,8787,8788,8797,8798 
6623,8786,8787,8798,8799 
6624,8785,8786,8799,8800 
6625,8784,8785,8800,8801 
6626,8783,8784,8801,8802 
6627,8782,8783,8802,8803 
6628,8781,8782,8803,8804 
6629,8780,8781,8804,8805 
6630,8779,8780,8805,8806 
6631,8778,8779,8806,8807 
6632,8777,8778,8807,8808 
6633,8776,8777,8808,8809 
6634,8775,8776,8809,8810 
6635,8774,8775,8810,8811 
6636,8773,8774,8811,8812 
** ... 2184 like lines cut
*ELEMENT, TYPE=S4R, ELSET=Posterior_Leaflet_Elements 
8821,60,83,191,81 
8822,81,191,192,80 
8823,191,194,193,192 
8824,191,83,195,194 
8825,83,84,196,195 
8826,84,85,197,196 
8827,85,86,198,197 
8828,86,87,199,198 
8829,87,88,200,199 
8830,88,89,201,200 
8831,89,90,202,201 
8832,90,91,203,202 
8833,91,92,204,203 
8834,92,93,205,204 
8835,93,94,206,205 
8836,94,95,207,206 
8837,95,96,208,207 
8838,96,97,209,208 
8839,97,98,210,209 
8840,98,99,211,210 
** ... 1680 like lines cut
*ELEMENT, TYPE=T3D2, ELSET=Chordae_Elements 
** COMMISSURE MAIN CHORDAE POINTS 
10521, 10884, 10885 
10522, 10885, 10886 
10523, 10886, 10887 
10524, 10887, 10888 
10525, 10888, 10889 
10526, 10889, 10890 
10527, 10890, 10891 
10528, 10891, 10892 
10529, 10892, 82 
10530, 10894, 10895 
10531, 10895, 10896 
10532, 10896, 10897 
10533, 10897, 10898 
10534, 10898, 10899 
10535, 10899, 10900 
10536, 10900, 10901 
10537, 10901, 10902 
10538, 10902, 60 
10539, 10904, 10905 
10540, 10905, 10906 
** ... 7 like lines cut
** COMMISSURE CHORDAE FAN POINTS 
10548, 10891, 10914 
10549, 10914, 167 
10550, 10891, 10915 
10551, 10915, 1975 
10552, 10901, 10916 
10553, 10916, 8774 
10554, 10901, 10917 
10555, 10917, 8783 
10556, 10911, 10918 
10557, 10918, 8686 
10558, 10911, 10919 
10559, 10919, 8696 
** CT Clear Points 
10560, 10884, 10920 
10561, 10920, 10921 
10562, 10921, 10922 
10563, 10922, 10923 
10564, 10923, 10924 
10565, 10924, 10925 
10566, 10925, 10926 
10567, 10926, 10927 
10568, 10927, 10928 
10569, 10928, 7281 
10570, 10904, 10929 
10571, 10929, 10930 
10572, 10930, 10931 
10573, 10931, 10932 
10574, 10932, 10933 
10575, 10933, 10934 
10576, 10934, 10935 
10577, 10935, 10936 
10578, 10936, 10937 
10579, 10937, 4815 
** ... 30 like lines cut
** CLEAR CHORDAE 
10611, 10927, 10965 
10612, 10965, 6370 
10613, 10927, 10966 
10614, 10966, 6371 
10615, 10927, 10967 
10616, 10967, 6372 
10617, 10927, 10968 
10618, 10968, 7121 
10619, 10927, 10969 
10620, 10969, 7122 
10621, 10927, 10970 
10622, 10970, 7123 
10623, 10927, 10971 
10624, 10971, 7124 
10625, 10927, 10972 
10626, 10972, 7125 
10627, 10927, 10973 
10628, 10973, 7279 
10629, 10927, 10974 
10630, 10974, 7280 
** ... 176 like lines cut
** CHORDAE ROUGH POINTS 
10807, 10884, 11063 
10808, 11063, 11064 
10809, 11064, 11065 
10810, 11065, 11066 
10811, 11066, 11067 
10812, 11067, 11068 
10813, 11068, 11069 
10814, 11069, 11070 
10815, 11070, 11071 
10816, 11071, 1972 
10817, 10884, 11072 
10818, 11072, 11073 
10819, 11073, 11074 
10820, 11074, 11075 
10821, 11075, 11076 
10822, 11076, 11077 
10823, 11077, 11078 
10824, 11078, 11079 
10825, 11079, 11080 
10826, 11080, 1983 
** ... 170 like lines cut
** ROUGH CHORDAE 
10997, 11070, 11234 
10998, 11234, 1970 
10999, 11070, 11235 
11000, 11235, 1971 
11001, 11070, 11236 
11002, 11236, 1973 
11003, 11070, 11237 
11004, 11237, 1974 
11005, 11070, 11238 
11006, 11238, 2206 
11007, 11070, 11239 
11008, 11239, 2207 
11009, 11070, 11240 
11010, 11240, 2208 
11011, 11070, 11241 
11012, 11241, 2209 
11013, 11070, 11242 
11014, 11242, 2394 
11015, 11070, 11243 
11016, 11243, 2395 
** ... 558 like lines cut
** MANUAL ANTERIOR CHORDAE 
11575, 10904, 11523 
11576, 11523, 11524 
11577, 11524, 11525 
11578, 11525, 11526 
11579, 11526, 11527 
11580, 11527, 11528 
11581, 11528, 11529 
11582, 11529, 11530 
11583, 11530, 8845 
11584, 10904, 11531 
11585, 11531, 11532 
11586, 11532, 11533 
11587, 11533, 11534 
11588, 11534, 11535 
11589, 11535, 11536 
11590, 11536, 11537 
11591, 11537, 11538 
11592, 11538, 9295 
11593, 10904, 11539 
11594, 11539, 11540 
** ... 70 like lines cut
** MANUAL POSTERIOR CHORDAE 
11665, 10884, 11603 
11666, 11603, 11604 
11667, 11604, 11605 
11668, 11605, 11606 
11669, 11606, 11607 
11670, 11607, 11608 
11671, 11608, 11609 
11672, 11609, 11610 
11673, 11610, 275 
11674, 10884, 11611 
11675, 11611, 11612 
11676, 11612, 11613 
11677, 11613, 11614 
11678, 11614, 11615 
11679, 11615, 11616 
11680, 11616, 11617 
11681, 11617, 11618 
11682, 11618, 154 
11683, 10884, 11619 
11684, 11619, 11620 
** ... 97 like lines cut
** MANUAL SEPTAL CHORDAE 
11782, 10894, 11707 
11783, 11707, 11708 
11784, 11708, 11709 
11785, 11709, 11710 
11786, 11710, 11711 
11787, 11711, 11712 
11788, 11712, 11713 
11789, 11713, 11714 
11790, 11714, 98 
11791, 10894, 11715 
11792, 11715, 11716 
11793, 11716, 11717 
11794, 11717, 11718 
11795, 11718, 11719 
11796, 11719, 11720 
11797, 11720, 11721 
11798, 11721, 11722 
11799, 11722, 8783 
11800, 10894, 11723 
11801, 11723, 11724 
** ... 115 like lines cut
** MANUAL ANTERIOR FAN 
11919, 11529, 11827 
11920, 11827, 8738 
11921, 11529, 11828 
11922, 11828, 8739 
11923, 11529, 11829 
11924, 11829, 8740 
11925, 11529, 11830 
11926, 11830, 8741 
11927, 11529, 11831 
11928, 11831, 8742 
11929, 11529, 11832 
11930, 11832, 8843 
11931, 11529, 11833 
11932, 11833, 8844 
11933, 11529, 11834 
11934, 11834, 8846 
11935, 11529, 11835 
11936, 11835, 8847 
11937, 11529, 11836 
11938, 11836, 9061 
** ... 364 like lines cut
** MANUAL POSTERIOR FAN 
12303, 11609, 12019 
12304, 12019, 164 
12305, 11609, 12020 
12306, 12020, 165 
12307, 11609, 12021 
12308, 12021, 166 
12309, 11609, 12022 
12310, 12022, 167 
12311, 11609, 12023 
12312, 12023, 273 
12313, 11609, 12024 
12314, 12024, 274 
12315, 11609, 12025 
12316, 12025, 276 
12317, 11609, 12026 
12318, 12026, 445 
12319, 11609, 12027 
12320, 12027, 446 
12321, 11609, 12028 
12322, 12028, 447 
** ... 396 like lines cut
** MANUAL SEPTAL FAN 
12719, 11713, 12227 
12720, 12227, 96 
12721, 11713, 12228 
12722, 12228, 97 
12723, 11713, 12229 
12724, 12229, 99 
12725, 11713, 12230 
12726, 12230, 100 
12727, 11713, 12231 
12728, 12231, 208 
12729, 11713, 12232 
12730, 12232, 209 
12731, 11713, 12233 
12732, 12233, 210 
12733, 11713, 12234 
12734, 12234, 211 
12735, 11713, 12235 
12736, 12235, 212 
12737, 11713, 12236 
12738, 12236, 386 
** ... 486 like lines cut
** MANUAL PAPILLARY POINTS 
13225, 12480, 12481 
13226, 12481, 12482 
13227, 12482, 12483 
13228, 12483, 12484 
13229, 12484, 12485 
13230, 12485, 12486 
13231, 12486, 12487 
13232, 12487, 12488 
13233, 12488, 2056 
13234, 12489, 12490 
13235, 12490, 12491 
13236, 12491, 12492 
13237, 12492, 12493 
13238, 12493, 12494 
13239, 12494, 12495 
13240, 12495, 12496 
13241, 12496, 12497 
13242, 12497, 2065 
13243, 12498, 12499 
13244, 12499, 12500 
** ... 241 like lines cut
** MANUAL PAPILLARY SPLIT 
13487, 12487, 12741 
13488, 12741, 2054 
13489, 12487, 12742 
13490, 12742, 2055 
13491, 12487, 12743 
13492, 12743, 2057 
13493, 12487, 12744 
13494, 12744, 2058 
13495, 12487, 12745 
13496, 12745, 2289 
13497, 12487, 12746 
13498, 12746, 2290 
13499, 12487, 12747 
13500, 12747, 2291 
13501, 12487, 12748 
13502, 12748, 2292 
13503, 12487, 12749 
13504, 12749, 2293 
13505, 12487, 12750 
13506, 12750, 2473 
** ... 1028 like lines cut
*NSET, NSET=Annular_Nodes 
1,2,3,4,5,6,
7,8,9,10,11,12,
13,14,15,16,17,18,
19,20,21,22,23,24,
25,26,27,28,29,30,
31,32,33,34,35,36,
37,38,39,40,41,42,
43,44,45,46,47,48,
49,50,51,52,53,54,
55,56,57,58,59,1797,
1798,1799,1800,1801,1802,1803,
1804,1805,1806,1807,1808,1809,
1810,1811,1812,1813,1814,1815,
1816,1817,1818,1819,1820,1821,
1822,1823,1824,1825,1826,1827,
1828,1829,1830,1831,1832,1833,
1834,1835,1836,1837,1838,1839,
1840,1841,1842,1843,1844,1845,
1846,1847,1848,1849,1850,1851,
1852,1853,1854,1855,1856,1857,
** ... 32 like lines cut
*NSET, NSET=Free_Edge_Nodes 
60,82,83,84,85,86,
87,88,89,90,91,92,
93,94,95,96,97,98,
99,100,101,102,103,104,
105,106,107,108,109,110,
111,112,113,114,115,116,
117,118,119,120,121,122,
123,124,125,126,127,128,
129,130,131,132,133,134,
135,136,137,138,139,140,
141,142,143,144,145,146,
147,148,149,150,151,152,
153,154,155,156,157,158,
159,160,161,162,163,164,
165,166,167,168,169,170,
171,172,173,174,175,1968,
1969,1970,1971,1972,1973,1974,
1975,1976,1977,1978,1979,1980,
1981,1982,1983,1984,1985,1986,
1987,1988,1989,1990,1991,1992,
** ... 50 like lines cut
*ELSET, ELSET=Posterior_Chordae 
10521,10522,10523,10524,10525,10526, 
10527,10528,10529,10548,10549,10550, 
10551,11665,11666,11667,11668,11669, 
11670,11671,11672,11673,11674,11675, 
11676,11677,11678,11679,11680,11681, 
11682,11683,11684,11685,11686,11687, 
11688,11689,11690,11691,11701,11702, 
11703,11704,11705,11706,11707,11708, 
11709,11710,11711,11712,11713,11714, 
11715,11716,11717,11718,11719,11720, 
11721,11722,11723,11724,11725,11726, 
11727,11728,11729,11730,11731,11732, 
11733,11734,11735,11736,11737,11738, 
11739,11740,11741,11742,11743,11744, 
11745,11746,11747,11748,11749,11750, 
11751,11752,11753,11754,11755,11756, 
11757,11758,11759,11760,11761,11762, 
11763,11764,11765,11766,11767,11768, 
11769,11770,11771,11772,11773,11774, 
11775,11776,11777,11778,11779,11780, 
** ... 166 like lines cut
*ELSET, ELSET=Septal_Chordae 
10530,10531,10532,10533,10534,10535, 
10536,10537,10538,10552,10553,10554, 
10555,10590,10591,10592,10593,10594, 
10595,10596,10597,10598,10599,10600, 
10601,10602,10603,10604,10605,10606, 
10607,10608,10609,10729,10730,10731, 
10732,10733,10734,10735,10736,10737, 
10738,10739,10740,10741,10742,10743, 
10744,10745,10746,10747,10748,10749, 
10750,10751,10752,10753,10754,10755, 
10756,10757,10758,10759,10760,10761, 
10762,10763,10764,10765,10766,10767, 
10768,10769,10770,10771,10772,10773, 
10774,10775,10776,10777,10778,10779, 
10780,10781,10782,10783,10784,10785, 
10786,10787,10788,10789,10790,10791, 
10792,10793,10794,10795,10796,10797, 
10798,10799,10800,10801,10802,10803, 
10804,10805,10806,10867,10868,10869, 
10870,10871,10872,10873,10874,10875, 
** ... 258 like lines cut
*ELSET, ELSET=Anterior_Chordae 
10539,10540,10541,10542,10543,10544, 
10545,10546,10547,10556,10557,10558, 
10559,10560,10561,10562,10563,10564, 
10565,10566,10567,10568,10569,10570, 
10571,10572,10573,10574,10575,10576, 
10577,10578,10579,10580,10581,10582, 
10583,10584,10585,10586,10587,10588, 
10589,10611,10612,10613,10614,10615, 
10616,10617,10618,10619,10620,10621, 
10622,10623,10624,10625,10626,10627, 
10628,10629,10630,10631,10632,10633, 
10634,10635,10636,10637,10638,10639, 
10640,10641,10642,10643,10644,10645, 
10646,10647,10648,10649,10650,10651, 
10652,10653,10654,10655,10656,10657, 
10658,10659,10660,10661,10662,10663, 
10664,10665,10666,10667,10668,10669, 
10670,10671,10672,10673,10674,10675, 
10676,10677,10678,10679,10680,10681, 
10682,10683,10684,10685,10686,10687, 
** ... 186 like lines cut
*ELSET, ELSET=LEAFLET_ELEMENTS 
Septal_Leaflet_Elements, Posterior_Leaflet_Elements, Anterior_Leaflet_Elements 

*Distribution, name=Ori-1-DiscOrient, location=ELEMENT, Table=Ori-1-DiscOrient_Table
,           1.,           0.,           0.,           0.,           1.,           0.
8821,0.854089,0.520128,-0.000000,0.000000,0.000000,1.000000
8822,0.851936,0.523645,-0.000000,0.000000,0.000000,1.000000
8823,0.825337,0.564641,-0.000000,0.000000,0.000000,1.000000
8824,0.825686,0.564130,-0.000000,0.000000,0.000000,1.000000
8825,0.832710,0.553710,-0.000000,0.000000,0.000000,1.000000
8826,0.817483,0.575953,-0.000000,0.000000,0.000000,1.000000
8827,0.813167,0.582030,-0.000000,0.000000,0.000000,1.000000
8828,0.813873,0.581043,-0.000000,0.000000,0.000000,1.000000
8829,0.813263,0.581896,-0.000000,0.000000,0.000000,1.000000
8830,0.809726,0.586809,-0.000000,0.000000,0.000000,1.000000
8831,0.803462,0.595356,-0.000000,0.000000,0.000000,1.000000
8832,0.795112,0.606462,-0.000000,0.000000,0.000000,1.000000
8833,0.785909,0.618342,-0.000000,0.000000,0.000000,1.000000
8834,0.777372,0.629041,-0.000000,0.000000,0.000000,1.000000
8835,0.770033,0.638004,-0.000000,0.000000,0.000000,1.000000
8836,0.762301,0.647223,-0.000000,0.000000,0.000000,1.000000
8837,0.751695,0.659511,-0.000000,0.000000,0.000000,1.000000
8838,0.736149,0.676820,-0.000000,0.000000,0.000000,1.000000
8839,0.719628,0.694360,-0.000000,0.000000,0.000000,1.000000
8840,0.707371,0.706843,-0.000000,0.000000,0.000000,1.000000
** ... 1680 like lines cut
*Orientation, name=Ori-1, system=RECTANGULAR, local directions=1
Ori-1-DiscOrient
3, 0.
1.000000,0.000000,0.0
*Distribution, name=Ori-2-DiscOrient, location=ELEMENT, Table=Ori-2-DiscOrient_Table
,           1.,           0.,           0.,           0.,           1.,           0.
1,-0.244262,0.969709,-0.000000,0.000000,0.000000,1.000000
2,-0.264559,0.964369,-0.000000,0.000000,0.000000,1.000000
3,-0.283724,0.958906,-0.000000,0.000000,0.000000,1.000000
4,-0.302219,0.953239,-0.000000,0.000000,0.000000,1.000000
5,-0.320526,0.947240,-0.000000,0.000000,0.000000,1.000000
6,-0.339032,0.940775,-0.000000,0.000000,0.000000,1.000000
7,-0.357558,0.933891,-0.000000,0.000000,0.000000,1.000000
8,-0.375988,0.926625,-0.000000,0.000000,0.000000,1.000000
9,-0.394193,0.919028,-0.000000,0.000000,0.000000,1.000000
10,-0.411990,0.911188,-0.000000,0.000000,0.000000,1.000000
11,-0.429456,0.903088,-0.000000,0.000000,0.000000,1.000000
12,-0.446602,0.894733,-0.000000,0.000000,0.000000,1.000000
13,-0.463333,0.886184,-0.000000,0.000000,0.000000,1.000000
14,-0.479607,0.877484,-0.000000,0.000000,0.000000,1.000000
15,-0.495578,0.868563,-0.000000,0.000000,0.000000,1.000000
16,-0.511941,0.859020,-0.000000,0.000000,0.000000,1.000000
17,-0.528446,0.848967,-0.000000,0.000000,0.000000,1.000000
18,-0.545056,0.838400,-0.000000,0.000000,0.000000,1.000000
19,-0.561733,0.827319,-0.000000,0.000000,0.000000,1.000000
20,-0.577905,0.816104,-0.000000,0.000000,0.000000,1.000000
** ... 6596 like lines cut
*Orientation, name=Ori-2, system=RECTANGULAR, local directions=1
Ori-2-DiscOrient
3, 0.
1.000000,0.000000,0.0
*Distribution, name=Ori-3-DiscOrient, location=ELEMENT, Table=Ori-3-DiscOrient_Table
,           1.,           0.,           0.,           0.,           1.,           0.
6617,0.865769,0.500444,-0.000000,0.000000,0.000000,1.000000
6618,0.870261,0.492592,-0.000000,0.000000,0.000000,1.000000
6619,0.871512,0.490374,-0.000000,0.000000,0.000000,1.000000
6620,0.879464,0.475965,-0.000000,0.000000,0.000000,1.000000
6621,0.911909,0.410392,-0.000000,0.000000,0.000000,1.000000
6622,0.924897,0.380217,-0.000000,0.000000,0.000000,1.000000
6623,0.928610,0.371056,-0.000000,0.000000,0.000000,1.000000
6624,0.927809,0.373055,-0.000000,0.000000,0.000000,1.000000
6625,0.925433,0.378910,-0.000000,0.000000,0.000000,1.000000
6626,0.923834,0.382793,-0.000000,0.000000,0.000000,1.000000
6627,0.921424,0.388558,-0.000000,0.000000,0.000000,1.000000
6628,0.920258,0.391313,-0.000000,0.000000,0.000000,1.000000
6629,0.920766,0.390116,-0.000000,0.000000,0.000000,1.000000
6630,0.922756,0.385385,-0.000000,0.000000,0.000000,1.000000
6631,0.927615,0.373538,-0.000000,0.000000,0.000000,1.000000
6632,0.936910,0.349570,-0.000000,0.000000,0.000000,1.000000
6633,0.944959,0.327189,-0.000000,0.000000,0.000000,1.000000
6634,0.951310,0.308236,-0.000000,0.000000,0.000000,1.000000
6635,0.955632,0.294565,-0.000000,0.000000,0.000000,1.000000
6636,0.958630,0.284654,-0.000000,0.000000,0.000000,1.000000
** ... 2184 like lines cut
*Orientation, name=Ori-3, system=RECTANGULAR, local directions=1
Ori-3-DiscOrient
3, 0.
1.000000,0.000000,0.0
*Shell Section, elset=Septal_Leaflet_Elements,  orientation=Ori-3, material=Septal_Leaflet 
.65,5 
*Shell Section, elset=Posterior_Leaflet_Elements, orientation=Ori-1, material=Posterior_Leaflet 
.65,5 
*Shell Section, elset=Anterior_Leaflet_Elements,  orientation=Ori-2, material=Anterior_Leaflet 
.65,5 
*Solid Section, elset=Anterior_Chordae, material=Anterior_Chordae
0.35634654, 
*Solid Section, elset=Posterior_Chordae, material=Posterior_Chordae
0.330046348, 
*Solid Section, elset=Septal_Chordae, material=Septal_Chordae
0.269284347, 
*End Part 
*Assembly, name=Valve_Assembly 
*Instance, name=Leaflet_Instance, part=Leaflet 
*End Instance 
*Surface, type=ELEMENT, name=Leaflet_Surfaces, MAXRATIO=0.6 
Leaflet_Instance.Anterior_Leaflet_Elements, SPOS 
Leaflet_Instance.Posterior_Leaflet_Elements, SPOS 
Leaflet_Instance.Septal_Leaflet_Elements, SPOS 
*End Assembly 
*Distribution Table, name=Ori-1-DiscOrient_Table
coord3D, coord3D
*Distribution Table, name=Ori-3-DiscOrient_Table
coord3D, coord3D
*Distribution Table, name=Ori-2-DiscOrient_Table
coord3D, coord3D
*Amplitude, name=Amp-1, definition=SMOOTH STEP  
0.5,  0.,  1.5,  1. 
*Amplitude, name=Amp-2, definition=SMOOTH STEP  
0.,  0.,  0.5,  1.
*Material, name=Anterior_Chordae 
*Density 
1e-9 
*Hyperelastic, OGDEN, N=3 
18.884147787615671,  98.253655062498183,  22.682992286286954, 98.251894443391549,  19.502933935159177,  98.253228660027887, 3.2760e-05, 0
  0.,
*Material, name=Posterior_Chordae 
*Density 
1e-9 
*Hyperelastic, OGDEN, N=3 
4.241553984852658,  55.914887194545429,   2.724796146859668, 55.915477229563507,   0.000037265674134,  70.715073154655229, 2.8719e-04, 0
  0.,
*Material, name=Septal_Chordae 
*Density 
1e-9 
*Hyperelastic, OGDEN, N=3 
33.7534784879460, 0.0001531670654, 0.0000145962860, 0.0003488130193, 0.0203430173299,   113.4473866780919, 5.9237e-05, 0
  0.,
*Material, name=Anterior_Leaflet
*Density
1e-09,
*anisotropic hyperelastic, user,formulation=invariant, local directions=1, type=compressible, properties=4
0.001000, 20.066890, 0.000124, 4.568202
*TRANSVERSE SHEAR
5.000000e-03,5.000000e-03,0.0
*Material, name=Posterior_Leaflet
*Density
1e-09,
*anisotropic hyperelastic, user,formulation=invariant, local directions=1, type=compressible, properties=4
0.001000, 20.066890, 0.000188, 14.859590
*TRANSVERSE SHEAR
5.000000e-03,5.000000e-03,0.0
*Material, name=Septal_Leaflet
*Density
1e-09,
*anisotropic hyperelastic, user,formulation=invariant, local directions=1, type=compressible, properties=4
0.001000, 20.066890, 0.000191, 17.751490
*TRANSVERSE SHEAR
5.000000e-03,5.000000e-03,0.0
*Surface Interaction, name=Interaction_Property 
1., 
*Friction 
0.01, 
*Surface Behavior, pressure-overclosure=linear 
0.5
*Step, name="Annulus Approximation", nlgeom=YES 
*Dynamic, Explicit 
, 1.5 
*Bulk Viscosity 
5.0, 1.2 
*VARIABLE MASS SCALING, TYPE=UNIFORM, FREQUENCY=100, DT=1e-7
*Boundary,op=NEW,amplitude=Amp-1 
Leaflet_Instance.1,1,1,0.000000 
Leaflet_Instance.1,2,2,0.000000 
Leaflet_Instance.1,3,3,0.000000 
*Boundary,op=NEW,amplitude=Amp-1 
Leaflet_Instance.2,1,1,0.000000 
Leaflet_Instance.2,2,2,0.000000 
Leaflet_Instance.2,3,3,0.000000 
*Boundary,op=NEW,amplitude=Amp-1 
Leaflet_Instance.3,1,1,0.000000 
Leaflet_Instance.3,2,2,0.000000 
Leaflet_Instance.3,3,3,0.000000 
*Boundary,op=NEW,amplitude=Amp-1 
Leaflet_Instance.4,1,1,0.000000 
Leaflet_Instance.4,2,2,0.000000 
Leaflet_Instance.4,3,3,0.000000 
*Boundary,op=NEW,amplitude=Amp-1 
Leaflet_Instance.5,1,1,0.000000 
Leaflet_Instance.5,2,2,0.000000 
Leaflet_Instance.5,3,3,0.000000 
*Boundary,op=NEW,amplitude=Amp-1 
Leaflet_Instance.6,1,1,0.000000 
Leaflet_Instance.6,2,2,0.000000 
Leaflet_Instance.6,3,3,0.000000 
*Boundary,op=NEW,amplitude=Amp-1 
Leaflet_Instance.7,1,1,0.000000 
Leaflet_Instance.7,2,2,0.000000 
Leaflet_Instance.7,3,3,0.000000 
*Boundary,op=NEW,amplitude=Amp-1 
Leaflet_Instance.8,1,1,0.000000 
Leaflet_Instance.8,2,2,0.000000 
Leaflet_Instance.8,3,3,0.000000 
*Boundary,op=NEW,amplitude=Amp-1 
Leaflet_Instance.9,1,1,0.000000 
Leaflet_Instance.9,2,2,0.000000 
Leaflet_Instance.9,3,3,0.000000 
*Boundary,op=NEW,amplitude=Amp-1 
Leaflet_Instance.10,1,1,0.000000 
Leaflet_Instance.10,2,2,0.000000 
Leaflet_Instance.10,3,3,0.000000 
*Boundary,op=NEW,amplitude=Amp-1 
Leaflet_Instance.11,1,1,0.000000 
Leaflet_Instance.11,2,2,0.000000 
Leaflet_Instance.11,3,3,0.000000 
*Boundary,op=NEW,amplitude=Amp-1 
Leaflet_Instance.12,1,1,0.000000 
Leaflet_Instance.12,2,2,0.000000 
Leaflet_Instance.12,3,3,0.000000 
*Boundary,op=NEW,amplitude=Amp-1 
Leaflet_Instance.13,1,1,0.000000 
Leaflet_Instance.13,2,2,0.000000 
Leaflet_Instance.13,3,3,0.000000 
*Boundary,op=NEW,amplitude=Amp-1 
Leaflet_Instance.14,1,1,0.000000 
Leaflet_Instance.14,2,2,0.000000 
Leaflet_Instance.14,3,3,0.000000 
*Boundary,op=NEW,amplitude=Amp-1 
Leaflet_Instance.15,1,1,0.000000 
Leaflet_Instance.15,2,2,0.000000 
Leaflet_Instance.15,3,3,0.000000 
*Boundary,op=NEW,amplitude=Amp-1 
Leaflet_Instance.16,1,1,0.000000 
Leaflet_Instance.16,2,2,0.000000 
Leaflet_Instance.16,3,3,0.000000 
*Boundary,op=NEW,amplitude=Amp-1 
Leaflet_Instance.17,1,1,0.000000 
Leaflet_Instance.17,2,2,0.000000 
Leaflet_Instance.17,3,3,0.000000 
*Boundary,op=NEW,amplitude=Amp-1 
Leaflet_Instance.18,1,1,0.000000 
Leaflet_Instance.18,2,2,0.000000 
Leaflet_Instance.18,3,3,0.000000 
*Boundary,op=NEW,amplitude=Amp-1 
Leaflet_Instance.19,1,1,0.000000 
Leaflet_Instance.19,2,2,0.000000 
Leaflet_Instance.19,3,3,0.000000 
*Boundary,op=NEW,amplitude=Amp-1 
Leaflet_Instance.20,1,1,0.000000 
Leaflet_Instance.20,2,2,0.000000 
Leaflet_Instance.20,3,3,0.000000 
*Boundary,op=NEW,amplitude=Amp-1 
Leaflet_Instance.21,1,1,0.000000 
Leaflet_Instance.21,2,2,0.000000 
Leaflet_Instance.21,3,3,0.000000 
*Boundary,op=NEW,amplitude=Amp-1 
Leaflet_Instance.22,1,1,0.000000 
Leaflet_Instance.22,2,2,0.000000 
Leaflet_Instance.22,3,3,0.000000 
*Boundary,op=NEW,amplitude=Amp-1 
Leaflet_Instance.23,1,1,0.000000 
Leaflet_Instance.23,2,2,0.000000 
Leaflet_Instance.23,3,3,0.000000 
*Boundary,op=NEW,amplitude=Amp-1 
Leaflet_Instance.24,1,1,0.000000 
Leaflet_Instance.24,2,2,0.000000 
Leaflet_Instance.24,3,3,0.000000 
*Boundary,op=NEW,amplitude=Amp-1 
Leaflet_Instance.25,1,1,0.000000 
Leaflet_Instance.25,2,2,0.000000 
Leaflet_Instance.25,3,3,0.000000 
*Boundary,op=NEW,amplitude=Amp-1 
Leaflet_Instance.26,1,1,0.000000 
Leaflet_Instance.26,2,2,0.000000 
Leaflet_Instance.26,3,3,0.000000 
*Boundary,op=NEW,amplitude=Amp-1 
Leaflet_Instance.27,1,1,0.000000 
Leaflet_Instance.27,2,2,0.000000 
Leaflet_Instance.27,3,3,0.000000 
*Boundary,op=NEW,amplitude=Amp-1 
Leaflet_Instance.28,1,1,0.000000 
Leaflet_Instance.28,2,2,0.000000 
Leaflet_Instance.28,3,3,0.000000 
*Boundary,op=NEW,amplitude=Amp-1 
Leaflet_Instance.29,1,1,0.000000 
Leaflet_Instance.29,2,2,0.000000 
Leaflet_Instance.29,3,3,0.000000 
*Boundary,op=NEW,amplitude=Amp-1 
Leaflet_Instance.30,1,1,0.000000 
Leaflet_Instance.30,2,2,0.000000 
Leaflet_Instance.30,3,3,0.000000 
*Boundary,op=NEW,amplitude=Amp-1 
Leaflet_Instance.31,1,1,0.000000 
Leaflet_Instance.31,2,2,0.000000 
Leaflet_Instance.31,3,3,0.000000 
*Boundary,op=NEW,amplitude=Amp-1 
Leaflet_Instance.32,1,1,0.000000 
Leaflet_Instance.32,2,2,0.000000 
Leaflet_Instance.32,3,3,0.000000 
*Boundary,op=NEW,amplitude=Amp-1 
Leaflet_Instance.33,1,1,0.000000 
Leaflet_Instance.33,2,2,0.000000 
Leaflet_Instance.33,3,3,0.000000 
*Boundary,op=NEW,amplitude=Amp-1 
Leaflet_Instance.34,1,1,0.000000 
Leaflet_Instance.34,2,2,0.000000 
Leaflet_Instance.34,3,3,0.000000 
*Boundary,op=NEW,amplitude=Amp-1 
Leaflet_Instance.35,1,1,0.000000 
Leaflet_Instance.35,2,2,0.000000 
Leaflet_Instance.35,3,3,0.000000 
*Boundary,op=NEW,amplitude=Amp-1 
Leaflet_Instance.36,1,1,0.000000 
Leaflet_Instance.36,2,2,0.000000 
Leaflet_Instance.36,3,3,0.000000 
*Boundary,op=NEW,amplitude=Amp-1 
Leaflet_Instance.37,1,1,0.000000 
Leaflet_Instance.37,2,2,0.000000 
Leaflet_Instance.37,3,3,0.000000 
*Boundary,op=NEW,amplitude=Amp-1 
Leaflet_Instance.38,1,1,0.000000 
Leaflet_Instance.38,2,2,0.000000 
Leaflet_Instance.38,3,3,0.000000 
*Boundary,op=NEW,amplitude=Amp-1 
Leaflet_Instance.39,1,1,0.000000 
Leaflet_Instance.39,2,2,0.000000 
Leaflet_Instance.39,3,3,0.000000 
*Boundary,op=NEW,amplitude=Amp-1 
Leaflet_Instance.40,1,1,0.000000 
Leaflet_Instance.40,2,2,0.000000 
Leaflet_Instance.40,3,3,0.000000 
*Boundary,op=NEW,amplitude=Amp-1 
Leaflet_Instance.41,1,1,0.000000 
Leaflet_Instance.41,2,2,0.000000 
Leaflet_Instance.41,3,3,0.000000 
*Boundary,op=NEW,amplitude=Amp-1 
Leaflet_Instance.42,1,1,0.000000 
Leaflet_Instance.42,2,2,0.000000 
Leaflet_Instance.42,3,3,0.000000 
*Boundary,op=NEW,amplitude=Amp-1 
Leaflet_Instance.43,1,1,0.000000 
Leaflet_Instance.43,2,2,0.000000 
Leaflet_Instance.43,3,3,0.000000 
*Boundary,op=NEW,amplitude=Amp-1 
Leaflet_Instance.44,1,1,0.000000 
Leaflet_Instance.44,2,2,0.000000 
Leaflet_Instance.44,3,3,0.000000 
*Boundary,op=NEW,amplitude=Amp-1 
Leaflet_Instance.45,1,1,0.000000 
Leaflet_Instance.45,2,2,0.000000 
Leaflet_Instance.45,3,3,0.000000 
*Boundary,op=NEW,amplitude=Amp-1 
Leaflet_Instance.46,1,1,0.000000 
Leaflet_Instance.46,2,2,0.000000 
Leaflet_Instance.46,3,3,0.000000 
*Boundary,op=NEW,amplitude=Amp-1 
Leaflet_Instance.47,1,1,0.000000 
Leaflet_Instance.47,2,2,0.000000 
Leaflet_Instance.47,3,3,0.000000 
*Boundary,op=NEW,amplitude=Amp-1 
Leaflet_Instance.48,1,1,0.000000 
Leaflet_Instance.48,2,2,0.000000 
Leaflet_Instance.48,3,3,0.000000 
*Boundary,op=NEW,amplitude=Amp-1 
Leaflet_Instance.49,1,1,0.000000 
Leaflet_Instance.49,2,2,0.000000 
Leaflet_Instance.49,3,3,0.000000 
*Boundary,op=NEW,amplitude=Amp-1 
Leaflet_Instance.50,1,1,0.000000 
Leaflet_Instance.50,2,2,0.000000 
Leaflet_Instance.50,3,3,0.000000 
*Boundary,op=NEW,amplitude=Amp-1 
Leaflet_Instance.51,1,1,0.000000 
Leaflet_Instance.51,2,2,0.000000 
Leaflet_Instance.51,3,3,0.000000 
*Boundary,op=NEW,amplitude=Amp-1 
Leaflet_Instance.52,1,1,0.000000 
Leaflet_Instance.52,2,2,0.000000 
Leaflet_Instance.52,3,3,0.000000 
*Boundary,op=NEW,amplitude=Amp-1 
Leaflet_Instance.53,1,1,0.000000 
Leaflet_Instance.53,2,2,0.000000 
Leaflet_Instance.53,3,3,0.000000 
*Boundary,op=NEW,amplitude=Amp-1 
Leaflet_Instance.54,1,1,0.000000 
Leaflet_Instance.54,2,2,0.000000 
Leaflet_Instance.54,3,3,0.000000 
*Boundary,op=NEW,amplitude=Amp-1 
Leaflet_Instance.55,1,1,0.000000 
Leaflet_Instance.55,2,2,0.000000 
Leaflet_Instance.55,3,3,0.000000 
*Boundary,op=NEW,amplitude=Amp-1 
Leaflet_Instance.56,1,1,0.000000 
Leaflet_Instance.56,2,2,0.000000 
Leaflet_Instance.56,3,3,0.000000 
*Boundary,op=NEW,amplitude=Amp-1 
Leaflet_Instance.57,1,1,0.000000 
Leaflet_Instance.57,2,2,0.000000 
Leaflet_Instance.57,3,3,0.000000 
*Boundary,op=NEW,amplitude=Amp-1 
Leaflet_Instance.58,1,1,0.000000 
Leaflet_Instance.58,2,2,0.000000 
Leaflet_Instance.58,3,3,0.000000 
*Boundary,op=NEW,amplitude=Amp-1 
Leaflet_Instance.59,1,1,0.000000 
Leaflet_Instance.59,2,2,0.000000 
Leaflet_Instance.59,3,3,0.000000 
*Boundary,op=NEW,amplitude=Amp-1 
Leaflet_Instance.1797,1,1,0.000000 
Leaflet_Instance.1797,2,2,0.000000 
Leaflet_Instance.1797,3,3,0.000000 
*Boundary,op=NEW,amplitude=Amp-1 
Leaflet_Instance.1798,1,1,0.000000 
Leaflet_Instance.1798,2,2,0.000000 
Leaflet_Instance.1798,3,3,0.000000 
*Boundary,op=NEW,amplitude=Amp-1 
Leaflet_Instance.1799,1,1,0.000000 
Leaflet_Instance.1799,2,2,0.000000 
Leaflet_Instance.1799,3,3,0.000000 
*Boundary,op=NEW,amplitude=Amp-1 
Leaflet_Instance.1800,1,1,0.000000 
Leaflet_Instance.1800,2,2,0.000000 
Leaflet_Instance.1800,3,3,0.000000 
*Boundary,op=NEW,amplitude=Amp-1 
Leaflet_Instance.1801,1,1,0.000000 
Leaflet_Instance.1801,2,2,0.000000 
Leaflet_Instance.1801,3,3,0.000000 
*Boundary,op=NEW,amplitude=Amp-1 
Leaflet_Instance.1802,1,1,0.000000 
Leaflet_Instance.1802,2,2,0.000000 
Leaflet_Instance.1802,3,3,0.000000 
*Boundary,op=NEW,amplitude=Amp-1 
Leaflet_Instance.1803,1,1,0.000000 
Leaflet_Instance.1803,2,2,0.000000 
Leaflet_Instance.1803,3,3,0.000000 
*Boundary,op=NEW,amplitude=Amp-1 
Leaflet_Instance.1804,1,1,0.000000 
Leaflet_Instance.1804,2,2,0.000000 
Leaflet_Instance.1804,3,3,0.000000 
*Boundary,op=NEW,amplitude=Amp-1 
Leaflet_Instance.1805,1,1,0.000000 
Leaflet_Instance.1805,2,2,0.000000 
Leaflet_Instance.1805,3,3,0.000000 
*Boundary,op=NEW,amplitude=Amp-1 
Leaflet_Instance.1806,1,1,0.000000 
Leaflet_Instance.1806,2,2,0.000000 
Leaflet_Instance.1806,3,3,0.000000 
*Boundary,op=NEW,amplitude=Amp-1 
Leaflet_Instance.1807,1,1,0.000000 
Leaflet_Instance.1807,2,2,0.000000 
Leaflet_Instance.1807,3,3,0.000000 
*Boundary,op=NEW,amplitude=Amp-1 
Leaflet_Instance.1808,1,1,0.000000 
Leaflet_Instance.1808,2,2,0.000000 
Leaflet_Instance.1808,3,3,0.000000 
*Boundary,op=NEW,amplitude=Amp-1 
Leaflet_Instance.1809,1,1,0.000000 
Leaflet_Instance.1809,2,2,0.000000 
Leaflet_Instance.1809,3,3,0.000000 
*Boundary,op=NEW,amplitude=Amp-1 
Leaflet_Instance.1810,1,1,0.000000 
Leaflet_Instance.1810,2,2,0.000000 
Leaflet_Instance.1810,3,3,0.000000 
*Boundary,op=NEW,amplitude=Amp-1 
Leaflet_Instance.1811,1,1,0.000000 
Leaflet_Instance.1811,2,2,0.000000 
Leaflet_Instance.1811,3,3,0.000000 
*Boundary,op=NEW,amplitude=Amp-1 
Leaflet_Instance.1812,1,1,0.000000 
Leaflet_Instance.1812,2,2,0.000000 
Leaflet_Instance.1812,3,3,0.000000 
*Boundary,op=NEW,amplitude=Amp-1 
Leaflet_Instance.1813,1,1,0.000000 
Leaflet_Instance.1813,2,2,0.000000 
Leaflet_Instance.1813,3,3,0.000000 
*Boundary,op=NEW,amplitude=Amp-1 
Leaflet_Instance.1814,1,1,0.000000 
Leaflet_Instance.1814,2,2,0.000000 
Leaflet_Instance.1814,3,3,0.000000 
*Boundary,op=NEW,amplitude=Amp-1 
Leaflet_Instance.1815,1,1,0.000000 
Leaflet_Instance.1815,2,2,0.000000 
Leaflet_Instance.1815,3,3,0.000000 
*Boundary,op=NEW,amplitude=Amp-1 
Leaflet_Instance.1816,1,1,0.000000 
Leaflet_Instance.1816,2,2,0.000000 
Leaflet_Instance.1816,3,3,0.000000 
*Boundary,op=NEW,amplitude=Amp-1 
Leaflet_Instance.1817,1,1,0.000000 
Leaflet_Instance.1817,2,2,0.000000 
Leaflet_Instance.1817,3,3,0.000000 
*Boundary,op=NEW,amplitude=Amp-1 
Leaflet_Instance.1818,1,1,0.000000 
Leaflet_Instance.1818,2,2,0.000000 
Leaflet_Instance.1818,3,3,0.000000 
*Boundary,op=NEW,amplitude=Amp-1 
Leaflet_Instance.1819,1,1,0.000000 
Leaflet_Instance.1819,2,2,0.000000 
Leaflet_Instance.1819,3,3,0.000000 
*Boundary,op=NEW,amplitude=Amp-1 
Leaflet_Instance.1820,1,1,0.000000 
Leaflet_Instance.1820,2,2,0.000000 
Leaflet_Instance.1820,3,3,0.000000 
*Boundary,op=NEW,amplitude=Amp-1 
Leaflet_Instance.1821,1,1,0.000000 
Leaflet_Instance.1821,2,2,0.000000 
Leaflet_Instance.1821,3,3,0.000000 
*Boundary,op=NEW,amplitude=Amp-1 
Leaflet_Instance.1822,1,1,0.000000 
Leaflet_Instance.1822,2,2,0.000000 
Leaflet_Instance.1822,3,3,0.000000 
*Boundary,op=NEW,amplitude=Amp-1 
Leaflet_Instance.1823,1,1,0.000000 
Leaflet_Instance.1823,2,2,0.000000 
Leaflet_Instance.1823,3,3,0.000000 
*Boundary,op=NEW,amplitude=Amp-1 
Leaflet_Instance.1824,1,1,0.000000 
Leaflet_Instance.1824,2,2,0.000000 
Leaflet_Instance.1824,3,3,0.000000 
*Boundary,op=NEW,amplitude=Amp-1 
Leaflet_Instance.1825,1,1,0.000000 
Leaflet_Instance.1825,2,2,0.000000 
Leaflet_Instance.1825,3,3,0.000000 
*Boundary,op=NEW,amplitude=Amp-1 
Leaflet_Instance.1826,1,1,0.000000 
Leaflet_Instance.1826,2,2,0.000000 
Leaflet_Instance.1826,3,3,0.000000 
*Boundary,op=NEW,amplitude=Amp-1 
Leaflet_Instance.1827,1,1,0.000000 
Leaflet_Instance.1827,2,2,0.000000 
Leaflet_Instance.1827,3,3,0.000000 
*Boundary,op=NEW,amplitude=Amp-1 
Leaflet_Instance.1828,1,1,0.000000 
Leaflet_Instance.1828,2,2,0.000000 
Leaflet_Instance.1828,3,3,0.000000 
*Boundary,op=NEW,amplitude=Amp-1 
Leaflet_Instance.1829,1,1,0.000000 
Leaflet_Instance.1829,2,2,0.000000 
Leaflet_Instance.1829,3,3,0.000000 
*Boundary,op=NEW,amplitude=Amp-1 
Leaflet_Instance.1830,1,1,0.000000 
Leaflet_Instance.1830,2,2,0.000000 
Leaflet_Instance.1830,3,3,0.000000 
*Boundary,op=NEW,amplitude=Amp-1 
Leaflet_Instance.1831,1,1,0.000000 
Leaflet_Instance.1831,2,2,0.000000 
Leaflet_Instance.1831,3,3,0.000000 
*Boundary,op=NEW,amplitude=Amp-1 
Leaflet_Instance.1832,1,1,0.000000 
Leaflet_Instance.1832,2,2,0.000000 
Leaflet_Instance.1832,3,3,0.000000 
*Boundary,op=NEW,amplitude=Amp-1 
Leaflet_Instance.1833,1,1,0.000000 
Leaflet_Instance.1833,2,2,0.000000 
Leaflet_Instance.1833,3,3,0.000000 
*Boundary,op=NEW,amplitude=Amp-1 
Leaflet_Instance.1834,1,1,0.000000 
Leaflet_Instance.1834,2,2,0.000000 
Leaflet_Instance.1834,3,3,0.000000 
*Boundary,op=NEW,amplitude=Amp-1 
Leaflet_Instance.1835,1,1,0.000000 
Leaflet_Instance.1835,2,2,0.000000 
Leaflet_Instance.1835,3,3,0.000000 
*Boundary,op=NEW,amplitude=Amp-1 
Leaflet_Instance.1836,1,1,0.000000 
Leaflet_Instance.1836,2,2,0.000000 
Leaflet_Instance.1836,3,3,0.000000 
*Boundary,op=NEW,amplitude=Amp-1 
Leaflet_Instance.1837,1,1,0.000000 
Leaflet_Instance.1837,2,2,0.000000 
Leaflet_Instance.1837,3,3,0.000000 
*Boundary,op=NEW,amplitude=Amp-1 
Leaflet_Instance.1838,1,1,0.000000 
Leaflet_Instance.1838,2,2,0.000000 
Leaflet_Instance.1838,3,3,0.000000 
*Boundary,op=NEW,amplitude=Amp-1 
Leaflet_Instance.1839,1,1,0.000000 
Leaflet_Instance.1839,2,2,0.000000 
Leaflet_Instance.1839,3,3,0.000000 
*Boundary,op=NEW,amplitude=Amp-1 
Leaflet_Instance.1840,1,1,0.000000 
Leaflet_Instance.1840,2,2,0.000000 
Leaflet_Instance.1840,3,3,0.000000 
*Boundary,op=NEW,amplitude=Amp-1 
Leaflet_Instance.1841,1,1,0.000000 
Leaflet_Instance.1841,2,2,0.000000 
Leaflet_Instance.1841,3,3,0.000000 
*Boundary,op=NEW,amplitude=Amp-1 
Leaflet_Instance.1842,1,1,0.000000 
Leaflet_Instance.1842,2,2,0.000000 
Leaflet_Instance.1842,3,3,0.000000 
*Boundary,op=NEW,amplitude=Amp-1 
Leaflet_Instance.1843,1,1,0.000000 
Leaflet_Instance.1843,2,2,0.000000 
Leaflet_Instance.1843,3,3,0.000000 
*Boundary,op=NEW,amplitude=Amp-1 
Leaflet_Instance.1844,1,1,0.000000 
Leaflet_Instance.1844,2,2,0.000000 
Leaflet_Instance.1844,3,3,0.000000 
*Boundary,op=NEW,amplitude=Amp-1 
Leaflet_Instance.1845,1,1,0.000000 
Leaflet_Instance.1845,2,2,0.000000 
Leaflet_Instance.1845,3,3,0.000000 
*Boundary,op=NEW,amplitude=Amp-1 
Leaflet_Instance.1846,1,1,0.000000 
Leaflet_Instance.1846,2,2,0.000000 
Leaflet_Instance.1846,3,3,0.000000 
*Boundary,op=NEW,amplitude=Amp-1 
Leaflet_Instance.1847,1,1,0.000000 
Leaflet_Instance.1847,2,2,0.000000 
Leaflet_Instance.1847,3,3,0.000000 
*Boundary,op=NEW,amplitude=Amp-1 
Leaflet_Instance.1848,1,1,0.000000 
Leaflet_Instance.1848,2,2,0.000000 
Leaflet_Instance.1848,3,3,0.000000 
*Boundary,op=NEW,amplitude=Amp-1 
Leaflet_Instance.1849,1,1,0.000000 
Leaflet_Instance.1849,2,2,0.000000 
Leaflet_Instance.1849,3,3,0.000000 
*Boundary,op=NEW,amplitude=Amp-1 
Leaflet_Instance.1850,1,1,0.000000 
Leaflet_Instance.1850,2,2,0.000000 
Leaflet_Instance.1850,3,3,0.000000 
*Boundary,op=NEW,amplitude=Amp-1 
Leaflet_Instance.1851,1,1,0.000000 
Leaflet_Instance.1851,2,2,0.000000 
Leaflet_Instance.1851,3,3,0.000000 
*Boundary,op=NEW,amplitude=Amp-1 
Leaflet_Instance.1852,1,1,0.000000 
Leaflet_Instance.1852,2,2,0.000000 
Leaflet_Instance.1852,3,3,0.000000 
*Boundary,op=NEW,amplitude=Amp-1 
Leaflet_Instance.1853,1,1,0.000000 
Leaflet_Instance.1853,2,2,0.000000 
Leaflet_Instance.1853,3,3,0.000000 
*Boundary,op=NEW,amplitude=Amp-1 
Leaflet_Instance.1854,1,1,0.000000 
Leaflet_Instance.1854,2,2,0.000000 
Leaflet_Instance.1854,3,3,0.000000 
*Boundary,op=NEW,amplitude=Amp-1 
Leaflet_Instance.1855,1,1,0.000000 
Leaflet_Instance.1855,2,2,0.000000 
Leaflet_Instance.1855,3,3,0.000000 
*Boundary,op=NEW,amplitude=Amp-1 
Leaflet_Instance.1856,1,1,0.000000 
Leaflet_Instance.1856,2,2,0.000000 
Leaflet_Instance.1856,3,3,0.000000 
*Boundary,op=NEW,amplitude=Amp-1 
Leaflet_Instance.1857,1,1,0.000000 
Leaflet_Instance.1857,2,2,0.000000 
Leaflet_Instance.1857,3,3,0.000000 
*Boundary,op=NEW,amplitude=Amp-1 
Leaflet_Instance.1858,1,1,0.000000 
Leaflet_Instance.1858,2,2,0.000000 
Leaflet_Instance.1858,3,3,0.000000 
*Boundary,op=NEW,amplitude=Amp-1 
Leaflet_Instance.1859,1,1,0.000000 
Leaflet_Instance.1859,2,2,0.000000 
Leaflet_Instance.1859,3,3,0.000000 
*Boundary,op=NEW,amplitude=Amp-1 
Leaflet_Instance.1860,1,1,0.000000 
Leaflet_Instance.1860,2,2,0.000000 
Leaflet_Instance.1860,3,3,0.000000 
*Boundary,op=NEW,amplitude=Amp-1 
Leaflet_Instance.1861,1,1,0.000000 
Leaflet_Instance.1861,2,2,0.000000 
Leaflet_Instance.1861,3,3,0.000000 
*Boundary,op=NEW,amplitude=Amp-1 
Leaflet_Instance.1862,1,1,0.000000 
Leaflet_Instance.1862,2,2,0.000000 
Leaflet_Instance.1862,3,3,0.000000 
*Boundary,op=NEW,amplitude=Amp-1 
Leaflet_Instance.1863,1,1,0.000000 
Leaflet_Instance.1863,2,2,0.000000 
Leaflet_Instance.1863,3,3,0.000000 
*Boundary,op=NEW,amplitude=Amp-1 
Leaflet_Instance.1864,1,1,0.000000 
Leaflet_Instance.1864,2,2,0.000000 
Leaflet_Instance.1864,3,3,0.000000 
*Boundary,op=NEW,amplitude=Amp-1 
Leaflet_Instance.1865,1,1,0.000000 
Leaflet_Instance.1865,2,2,0.000000 
Leaflet_Instance.1865,3,3,0.000000 
*Boundary,op=NEW,amplitude=Amp-1 
Leaflet_Instance.1866,1,1,0.000000 
Leaflet_Instance.1866,2,2,0.000000 
Leaflet_Instance.1866,3,3,0.000000 
*Boundary,op=NEW,amplitude=Amp-1 
Leaflet_Instance.1867,1,1,0.000000 
Leaflet_Instance.1867,2,2,0.000000 
Leaflet_Instance.1867,3,3,0.000000 
*Boundary,op=NEW,amplitude=Amp-1 
Leaflet_Instance.1868,1,1,0.000000 
Leaflet_Instance.1868,2,2,0.000000 
Leaflet_Instance.1868,3,3,0.000000 
*Boundary,op=NEW,amplitude=Amp-1 
Leaflet_Instance.1869,1,1,0.000000 
Leaflet_Instance.1869,2,2,0.000000 
Leaflet_Instance.1869,3,3,0.000000 
*Boundary,op=NEW,amplitude=Amp-1 
Leaflet_Instance.1870,1,1,0.000000 
Leaflet_Instance.1870,2,2,0.000000 
Leaflet_Instance.1870,3,3,0.000000 
*Boundary,op=NEW,amplitude=Amp-1 
Leaflet_Instance.1871,1,1,0.000000 
Leaflet_Instance.1871,2,2,0.000000 
Leaflet_Instance.1871,3,3,0.000000 
*Boundary,op=NEW,amplitude=Amp-1 
Leaflet_Instance.1872,1,1,0.000000 
Leaflet_Instance.1872,2,2,0.000000 
Leaflet_Instance.1872,3,3,0.000000 
*Boundary,op=NEW,amplitude=Amp-1 
Leaflet_Instance.1873,1,1,0.000000 
Leaflet_Instance.1873,2,2,0.000000 
Leaflet_Instance.1873,3,3,0.000000 
*Boundary,op=NEW,amplitude=Amp-1 
Leaflet_Instance.1874,1,1,0.000000 
Leaflet_Instance.1874,2,2,0.000000 
Leaflet_Instance.1874,3,3,0.000000 
*Boundary,op=NEW,amplitude=Amp-1 
Leaflet_Instance.1875,1,1,0.000000 
Leaflet_Instance.1875,2,2,0.000000 
Leaflet_Instance.1875,3,3,0.000000 
*Boundary,op=NEW,amplitude=Amp-1 
Leaflet_Instance.1876,1,1,0.000000 
Leaflet_Instance.1876,2,2,0.000000 
Leaflet_Instance.1876,3,3,0.000000 
*Boundary,op=NEW,amplitude=Amp-1 
Leaflet_Instance.1877,1,1,0.000000 
Leaflet_Instance.1877,2,2,0.000000 
Leaflet_Instance.1877,3,3,0.000000 
*Boundary,op=NEW,amplitude=Amp-1 
Leaflet_Instance.1878,1,1,0.000000 
Leaflet_Instance.1878,2,2,0.000000 
Leaflet_Instance.1878,3,3,0.000000 
*Boundary,op=NEW,amplitude=Amp-1 
Leaflet_Instance.1879,1,1,0.000000 
Leaflet_Instance.1879,2,2,0.000000 
Leaflet_Instance.1879,3,3,0.000000 
*Boundary,op=NEW,amplitude=Amp-1 
Leaflet_Instance.1880,1,1,0.000000 
Leaflet_Instance.1880,2,2,0.000000 
Leaflet_Instance.1880,3,3,0.000000 
*Boundary,op=NEW,amplitude=Amp-1 
Leaflet_Instance.1881,1,1,0.000000 
Leaflet_Instance.1881,2,2,0.000000 
Leaflet_Instance.1881,3,3,0.000000 
*Boundary,op=NEW,amplitude=Amp-1 
Leaflet_Instance.1882,1,1,0.000000 
Leaflet_Instance.1882,2,2,0.000000 
Leaflet_Instance.1882,3,3,0.000000 
*Boundary,op=NEW,amplitude=Amp-1 
Leaflet_Instance.1883,1,1,0.000000 
Leaflet_Instance.1883,2,2,0.000000 
Leaflet_Instance.1883,3,3,0.000000 
*Boundary,op=NEW,amplitude=Amp-1 
Leaflet_Instance.1884,1,1,0.000000 
Leaflet_Instance.1884,2,2,0.000000 
Leaflet_Instance.1884,3,3,0.000000 
*Boundary,op=NEW,amplitude=Amp-1 
Leaflet_Instance.1885,1,1,0.000000 
Leaflet_Instance.1885,2,2,0.000000 
Leaflet_Instance.1885,3,3,0.000000 
*Boundary,op=NEW,amplitude=Amp-1 
Leaflet_Instance.1886,1,1,0.000000 
Leaflet_Instance.1886,2,2,0.000000 
Leaflet_Instance.1886,3,3,0.000000 
*Boundary,op=NEW,amplitude=Amp-1 
Leaflet_Instance.1887,1,1,0.000000 
Leaflet_Instance.1887,2,2,0.000000 
Leaflet_Instance.1887,3,3,0.000000 
*Boundary,op=NEW,amplitude=Amp-1 
Leaflet_Instance.1888,1,1,0.000000 
Leaflet_Instance.1888,2,2,0.000000 
Leaflet_Instance.1888,3,3,0.000000 
*Boundary,op=NEW,amplitude=Amp-1 
Leaflet_Instance.1889,1,1,0.000000 
Leaflet_Instance.1889,2,2,0.000000 
Leaflet_Instance.1889,3,3,0.000000 
*Boundary,op=NEW,amplitude=Amp-1 
Leaflet_Instance.1890,1,1,0.000000 
Leaflet_Instance.1890,2,2,0.000000 
Leaflet_Instance.1890,3,3,0.000000 
*Boundary,op=NEW,amplitude=Amp-1 
Leaflet_Instance.1891,1,1,0.000000 
Leaflet_Instance.1891,2,2,0.000000 
Leaflet_Instance.1891,3,3,0.000000 
*Boundary,op=NEW,amplitude=Amp-1 
Leaflet_Instance.1892,1,1,0.000000 
Leaflet_Instance.1892,2,2,0.000000 
Leaflet_Instance.1892,3,3,0.000000 
*Boundary,op=NEW,amplitude=Amp-1 
Leaflet_Instance.1893,1,1,0.000000 
Leaflet_Instance.1893,2,2,0.000000 
Leaflet_Instance.1893,3,3,0.000000 
*Boundary,op=NEW,amplitude=Amp-1 
Leaflet_Instance.1894,1,1,0.000000 
Leaflet_Instance.1894,2,2,0.000000 
Leaflet_Instance.1894,3,3,0.000000 
*Boundary,op=NEW,amplitude=Amp-1 
Leaflet_Instance.1895,1,1,0.000000 
Leaflet_Instance.1895,2,2,0.000000 
Leaflet_Instance.1895,3,3,0.000000 
*Boundary,op=NEW,amplitude=Amp-1 
Leaflet_Instance.1896,1,1,0.000000 
Leaflet_Instance.1896,2,2,0.000000 
Leaflet_Instance.1896,3,3,0.000000 
*Boundary,op=NEW,amplitude=Amp-1 
Leaflet_Instance.1897,1,1,0.000000 
Leaflet_Instance.1897,2,2,0.000000 
Leaflet_Instance.1897,3,3,0.000000 
*Boundary,op=NEW,amplitude=Amp-1 
Leaflet_Instance.1898,1,1,0.000000 
Leaflet_Instance.1898,2,2,0.000000 
Leaflet_Instance.1898,3,3,0.000000 
*Boundary,op=NEW,amplitude=Amp-1 
Leaflet_Instance.1899,1,1,0.000000 
Leaflet_Instance.1899,2,2,0.000000 
Leaflet_Instance.1899,3,3,0.000000 
*Boundary,op=NEW,amplitude=Amp-1 
Leaflet_Instance.1900,1,1,0.000000 
Leaflet_Instance.1900,2,2,0.000000 
Leaflet_Instance.1900,3,3,0.000000 
*Boundary,op=NEW,amplitude=Amp-1 
Leaflet_Instance.1901,1,1,0.000000 
Leaflet_Instance.1901,2,2,0.000000 
Leaflet_Instance.1901,3,3,0.000000 
*Boundary,op=NEW,amplitude=Amp-1 
Leaflet_Instance.1902,1,1,0.000000 
Leaflet_Instance.1902,2,2,0.000000 
Leaflet_Instance.1902,3,3,0.000000 
*Boundary,op=NEW,amplitude=Amp-1 
Leaflet_Instance.1903,1,1,0.000000 
Leaflet_Instance.1903,2,2,0.000000 
Leaflet_Instance.1903,3,3,0.000000 
*Boundary,op=NEW,amplitude=Amp-1 
Leaflet_Instance.1904,1,1,0.000000 
Leaflet_Instance.1904,2,2,0.000000 
Leaflet_Instance.1904,3,3,0.000000 
*Boundary,op=NEW,amplitude=Amp-1 
Leaflet_Instance.1905,1,1,0.000000 
Leaflet_Instance.1905,2,2,0.000000 
Leaflet_Instance.1905,3,3,0.000000 
*Boundary,op=NEW,amplitude=Amp-1 
Leaflet_Instance.1906,1,1,0.000000 
Leaflet_Instance.1906,2,2,0.000000 
Leaflet_Instance.1906,3,3,0.000000 
*Boundary,op=NEW,amplitude=Amp-1 
Leaflet_Instance.1907,1,1,0.000000 
Leaflet_Instance.1907,2,2,0.000000 
Leaflet_Instance.1907,3,3,0.000000 
*Boundary,op=NEW,amplitude=Amp-1 
Leaflet_Instance.1908,1,1,0.000000 
Leaflet_Instance.1908,2,2,0.000000 
Leaflet_Instance.1908,3,3,0.000000 
*Boundary,op=NEW,amplitude=Amp-1 
Leaflet_Instance.1909,1,1,0.000000 
Leaflet_Instance.1909,2,2,0.000000 
Leaflet_Instance.1909,3,3,0.000000 
*Boundary,op=NEW,amplitude=Amp-1 
Leaflet_Instance.1910,1,1,0.000000 
Leaflet_Instance.1910,2,2,0.000000 
Leaflet_Instance.1910,3,3,0.000000 
*Boundary,op=NEW,amplitude=Amp-1 
Leaflet_Instance.1911,1,1,0.000000 
Leaflet_Instance.1911,2,2,0.000000 
Leaflet_Instance.1911,3,3,0.000000 
*Boundary,op=NEW,amplitude=Amp-1 
Leaflet_Instance.1912,1,1,0.000000 
Leaflet_Instance.1912,2,2,0.000000 
Leaflet_Instance.1912,3,3,0.000000 
*Boundary,op=NEW,amplitude=Amp-1 
Leaflet_Instance.1913,1,1,0.000000 
Leaflet_Instance.1913,2,2,0.000000 
Leaflet_Instance.1913,3,3,0.000000 
*Boundary,op=NEW,amplitude=Amp-1 
Leaflet_Instance.1914,1,1,0.000000 
Leaflet_Instance.1914,2,2,0.000000 
Leaflet_Instance.1914,3,3,0.000000 
*Boundary,op=NEW,amplitude=Amp-1 
Leaflet_Instance.1915,1,1,0.000000 
Leaflet_Instance.1915,2,2,0.000000 
Leaflet_Instance.1915,3,3,0.000000 
*Boundary,op=NEW,amplitude=Amp-1 
Leaflet_Instance.1916,1,1,0.000000 
Leaflet_Instance.1916,2,2,0.000000 
Leaflet_Instance.1916,3,3,0.000000 
*Boundary,op=NEW,amplitude=Amp-1 
Leaflet_Instance.1917,1,1,0.000000 
Leaflet_Instance.1917,2,2,0.000000 
Leaflet_Instance.1917,3,3,0.000000 
*Boundary,op=NEW,amplitude=Amp-1 
Leaflet_Instance.1918,1,1,0.000000 
Leaflet_Instance.1918,2,2,0.000000 
Leaflet_Instance.1918,3,3,0.000000 
*Boundary,op=NEW,amplitude=Amp-1 
Leaflet_Instance.1919,1,1,0.000000 
Leaflet_Instance.1919,2,2,0.000000 
Leaflet_Instance.1919,3,3,0.000000 
*Boundary,op=NEW,amplitude=Amp-1 
Leaflet_Instance.1920,1,1,0.000000 
Leaflet_Instance.1920,2,2,0.000000 
Leaflet_Instance.1920,3,3,0.000000 
*Boundary,op=NEW,amplitude=Amp-1 
Leaflet_Instance.1921,1,1,0.000000 
Leaflet_Instance.1921,2,2,0.000000 
Leaflet_Instance.1921,3,3,0.000000 
*Boundary,op=NEW,amplitude=Amp-1 
Leaflet_Instance.1922,1,1,0.000000 
Leaflet_Instance.1922,2,2,0.000000 
Leaflet_Instance.1922,3,3,0.000000 
*Boundary,op=NEW,amplitude=Amp-1 
Leaflet_Instance.1923,1,1,0.000000 
Leaflet_Instance.1923,2,2,0.000000 
Leaflet_Instance.1923,3,3,0.000000 
*Boundary,op=NEW,amplitude=Amp-1 
Leaflet_Instance.1924,1,1,0.000000 
Leaflet_Instance.1924,2,2,0.000000 
Leaflet_Instance.1924,3,3,0.000000 
*Boundary,op=NEW,amplitude=Amp-1 
Leaflet_Instance.1925,1,1,0.000000 
Leaflet_Instance.1925,2,2,0.000000 
Leaflet_Instance.1925,3,3,0.000000 
*Boundary,op=NEW,amplitude=Amp-1 
Leaflet_Instance.1926,1,1,0.000000 
Leaflet_Instance.1926,2,2,0.000000 
Leaflet_Instance.1926,3,3,0.000000 
*Boundary,op=NEW,amplitude=Amp-1 
Leaflet_Instance.1927,1,1,0.000000 
Leaflet_Instance.1927,2,2,0.000000 
Leaflet_Instance.1927,3,3,0.000000 
*Boundary,op=NEW,amplitude=Amp-1 
Leaflet_Instance.1928,1,1,0.000000 
Leaflet_Instance.1928,2,2,0.000000 
Leaflet_Instance.1928,3,3,0.000000 
*Boundary,op=NEW,amplitude=Amp-1 
Leaflet_Instance.1929,1,1,0.000000 
Leaflet_Instance.1929,2,2,0.000000 
Leaflet_Instance.1929,3,3,0.000000 
*Boundary,op=NEW,amplitude=Amp-1 
Leaflet_Instance.1930,1,1,0.000000 
Leaflet_Instance.1930,2,2,0.000000 
Leaflet_Instance.1930,3,3,0.000000 
*Boundary,op=NEW,amplitude=Amp-1 
Leaflet_Instance.1931,1,1,0.000000 
Leaflet_Instance.1931,2,2,0.000000 
Leaflet_Instance.1931,3,3,0.000000 
*Boundary,op=NEW,amplitude=Amp-1 
Leaflet_Instance.1932,1,1,0.000000 
Leaflet_Instance.1932,2,2,0.000000 
Leaflet_Instance.1932,3,3,0.000000 
*Boundary,op=NEW,amplitude=Amp-1 
Leaflet_Instance.1933,1,1,0.000000 
Leaflet_Instance.1933,2,2,0.000000 
Leaflet_Instance.1933,3,3,0.000000 
*Boundary,op=NEW,amplitude=Amp-1 
Leaflet_Instance.1934,1,1,0.000000 
Leaflet_Instance.1934,2,2,0.000000 
Leaflet_Instance.1934,3,3,0.000000 
*Boundary,op=NEW,amplitude=Amp-1 
Leaflet_Instance.1935,1,1,0.000000 
Leaflet_Instance.1935,2,2,0.000000 
Leaflet_Instance.1935,3,3,0.000000 
*Boundary,op=NEW,amplitude=Amp-1 
Leaflet_Instance.1936,1,1,0.000000 
Leaflet_Instance.1936,2,2,0.000000 
Leaflet_Instance.1936,3,3,0.000000 
*Boundary,op=NEW,amplitude=Amp-1 
Leaflet_Instance.1937,1,1,0.000000 
Leaflet_Instance.1937,2,2,0.000000 
Leaflet_Instance.1937,3,3,0.000000 
*Boundary,op=NEW,amplitude=Amp-1 
Leaflet_Instance.1938,1,1,0.000000 
Leaflet_Instance.1938,2,2,0.000000 
Leaflet_Instance.1938,3,3,0.000000 
*Boundary,op=NEW,amplitude=Amp-1 
Leaflet_Instance.1939,1,1,0.000000 
Leaflet_Instance.1939,2,2,0.000000 
Leaflet_Instance.1939,3,3,0.000000 
*Boundary,op=NEW,amplitude=Amp-1 
Leaflet_Instance.1940,1,1,0.000000 
Leaflet_Instance.1940,2,2,0.000000 
Leaflet_Instance.1940,3,3,0.000000 
*Boundary,op=NEW,amplitude=Amp-1 
Leaflet_Instance.1941,1,1,0.000000 
Leaflet_Instance.1941,2,2,0.000000 
Leaflet_Instance.1941,3,3,0.000000 
*Boundary,op=NEW,amplitude=Amp-1 
Leaflet_Instance.1942,1,1,0.000000 
Leaflet_Instance.1942,2,2,0.000000 
Leaflet_Instance.1942,3,3,0.000000 
*Boundary,op=NEW,amplitude=Amp-1 
Leaflet_Instance.1943,1,1,0.000000 
Leaflet_Instance.1943,2,2,0.000000 
Leaflet_Instance.1943,3,3,0.000000 
*Boundary,op=NEW,amplitude=Amp-1 
Leaflet_Instance.1944,1,1,0.000000 
Leaflet_Instance.1944,2,2,0.000000 
Leaflet_Instance.1944,3,3,0.000000 
*Boundary,op=NEW,amplitude=Amp-1 
Leaflet_Instance.1945,1,1,0.000000 
Leaflet_Instance.1945,2,2,0.000000 
Leaflet_Instance.1945,3,3,0.000000 
*Boundary,op=NEW,amplitude=Amp-1 
Leaflet_Instance.1946,1,1,0.000000 
Leaflet_Instance.1946,2,2,0.000000 
Leaflet_Instance.1946,3,3,0.000000 
*Boundary,op=NEW,amplitude=Amp-1 
Leaflet_Instance.1947,1,1,0.000000 
Leaflet_Instance.1947,2,2,0.000000 
Leaflet_Instance.1947,3,3,0.000000 
*Boundary,op=NEW,amplitude=Amp-1 
Leaflet_Instance.1948,1,1,0.000000 
Leaflet_Instance.1948,2,2,0.000000 
Leaflet_Instance.1948,3,3,0.000000 
*Boundary,op=NEW,amplitude=Amp-1 
Leaflet_Instance.1949,1,1,0.000000 
Leaflet_Instance.1949,2,2,0.000000 
Leaflet_Instance.1949,3,3,0.000000 
*Boundary,op=NEW,amplitude=Amp-1 
Leaflet_Instance.1950,1,1,0.000000 
Leaflet_Instance.1950,2,2,0.000000 
Leaflet_Instance.1950,3,3,0.000000 
*Boundary,op=NEW,amplitude=Amp-1 
Leaflet_Instance.1951,1,1,0.000000 
Leaflet_Instance.1951,2,2,0.000000 
Leaflet_Instance.1951,3,3,0.000000 
*Boundary,op=NEW,amplitude=Amp-1 
Leaflet_Instance.1952,1,1,0.000000 
Leaflet_Instance.1952,2,2,0.000000 
Leaflet_Instance.1952,3,3,0.000000 
*Boundary,op=NEW,amplitude=Amp-1 
Leaflet_Instance.1953,1,1,0.000000 
Leaflet_Instance.1953,2,2,0.000000 
Leaflet_Instance.1953,3,3,0.000000 
*Boundary,op=NEW,amplitude=Amp-1 
Leaflet_Instance.1954,1,1,0.000000 
Leaflet_Instance.1954,2,2,0.000000 
Leaflet_Instance.1954,3,3,0.000000 
*Boundary,op=NEW,amplitude=Amp-1 
Leaflet_Instance.1955,1,1,0.000000 
Leaflet_Instance.1955,2,2,0.000000 
Leaflet_Instance.1955,3,3,0.000000 
*Boundary,op=NEW,amplitude=Amp-1 
Leaflet_Instance.1956,1,1,0.000000 
Leaflet_Instance.1956,2,2,0.000000 
Leaflet_Instance.1956,3,3,0.000000 
*Boundary,op=NEW,amplitude=Amp-1 
Leaflet_Instance.1957,1,1,0.000000 
Leaflet_Instance.1957,2,2,0.000000 
Leaflet_Instance.1957,3,3,0.000000 
*Boundary,op=NEW,amplitude=Amp-1 
Leaflet_Instance.1958,1,1,0.000000 
Leaflet_Instance.1958,2,2,0.000000 
Leaflet_Instance.1958,3,3,0.000000 
*Boundary,op=NEW,amplitude=Amp-1 
Leaflet_Instance.1959,1,1,0.000000 
Leaflet_Instance.1959,2,2,0.000000 
Leaflet_Instance.1959,3,3,0.000000 
*Boundary,op=NEW,amplitude=Amp-1 
Leaflet_Instance.1960,1,1,0.000000 
Leaflet_Instance.1960,2,2,0.000000 
Leaflet_Instance.1960,3,3,0.000000 
*Boundary,op=NEW,amplitude=Amp-1 
Leaflet_Instance.1961,1,1,0.000000 
Leaflet_Instance.1961,2,2,0.000000 
Leaflet_Instance.1961,3,3,0.000000 
*Boundary,op=NEW,amplitude=Amp-1 
Leaflet_Instance.1962,1,1,0.000000 
Leaflet_Instance.1962,2,2,0.000000 
Leaflet_Instance.1962,3,3,0.000000 
*Boundary,op=NEW,amplitude=Amp-1 
Leaflet_Instance.1963,1,1,0.000000 
Leaflet_Instance.1963,2,2,0.000000 
Leaflet_Instance.1963,3,3,0.000000 
*Boundary,op=NEW,amplitude=Amp-1 
Leaflet_Instance.1964,1,1,0.000000 
Leaflet_Instance.1964,2,2,0.000000 
Leaflet_Instance.1964,3,3,0.000000 
*Boundary,op=NEW,amplitude=Amp-1 
Leaflet_Instance.1965,1,1,0.000000 
Leaflet_Instance.1965,2,2,0.000000 
Leaflet_Instance.1965,3,3,0.000000 
*Boundary,op=NEW,amplitude=Amp-1 
Leaflet_Instance.1966,1,1,0.000000 
Leaflet_Instance.1966,2,2,0.000000 
Leaflet_Instance.1966,3,3,0.000000 
*Boundary,op=NEW,amplitude=Amp-1 
Leaflet_Instance.1967,1,1,0.000000 
Leaflet_Instance.1967,2,2,0.000000 
Leaflet_Instance.1967,3,3,0.000000 
*Boundary,op=NEW,amplitude=Amp-1 
Leaflet_Instance.8609,1,1,0.000000 
Leaflet_Instance.8609,2,2,0.000000 
Leaflet_Instance.8609,3,3,0.000000 
*Boundary,op=NEW,amplitude=Amp-1 
Leaflet_Instance.8610,1,1,0.000000 
Leaflet_Instance.8610,2,2,0.000000 
Leaflet_Instance.8610,3,3,0.000000 
*Boundary,op=NEW,amplitude=Amp-1 
Leaflet_Instance.8611,1,1,0.000000 
Leaflet_Instance.8611,2,2,0.000000 
Leaflet_Instance.8611,3,3,0.000000 
*Boundary,op=NEW,amplitude=Amp-1 
Leaflet_Instance.8612,1,1,0.000000 
Leaflet_Instance.8612,2,2,0.000000 
Leaflet_Instance.8612,3,3,0.000000 
*Boundary,op=NEW,amplitude=Amp-1 
Leaflet_Instance.8613,1,1,0.000000 
Leaflet_Instance.8613,2,2,0.000000 
Leaflet_Instance.8613,3,3,0.000000 
*Boundary,op=NEW,amplitude=Amp-1 
Leaflet_Instance.8614,1,1,0.000000 
Leaflet_Instance.8614,2,2,0.000000 
Leaflet_Instance.8614,3,3,0.000000 
*Boundary,op=NEW,amplitude=Amp-1 
Leaflet_Instance.8615,1,1,0.000000 
Leaflet_Instance.8615,2,2,0.000000 
Leaflet_Instance.8615,3,3,0.000000 
*Boundary,op=NEW,amplitude=Amp-1 
Leaflet_Instance.8616,1,1,0.000000 
Leaflet_Instance.8616,2,2,0.000000 
Leaflet_Instance.8616,3,3,0.000000 
*Boundary,op=NEW,amplitude=Amp-1 
Leaflet_Instance.8617,1,1,0.000000 
Leaflet_Instance.8617,2,2,0.000000 
Leaflet_Instance.8617,3,3,0.000000 
*Boundary,op=NEW,amplitude=Amp-1 
Leaflet_Instance.8618,1,1,0.000000 
Leaflet_Instance.8618,2,2,0.000000 
Leaflet_Instance.8618,3,3,0.000000 
*Boundary,op=NEW,amplitude=Amp-1 
Leaflet_Instance.8619,1,1,0.000000 
Leaflet_Instance.8619,2,2,0.000000 
Leaflet_Instance.8619,3,3,0.000000 
*Boundary,op=NEW,amplitude=Amp-1 
Leaflet_Instance.8620,1,1,0.000000 
Leaflet_Instance.8620,2,2,0.000000 
Leaflet_Instance.8620,3,3,0.000000 
*Boundary,op=NEW,amplitude=Amp-1 
Leaflet_Instance.8621,1,1,0.000000 
Leaflet_Instance.8621,2,2,0.000000 
Leaflet_Instance.8621,3,3,0.000000 
*Boundary,op=NEW,amplitude=Amp-1 
Leaflet_Instance.8622,1,1,0.000000 
Leaflet_Instance.8622,2,2,0.000000 
Leaflet_Instance.8622,3,3,0.000000 
*Boundary,op=NEW,amplitude=Amp-1 
Leaflet_Instance.8623,1,1,0.000000 
Leaflet_Instance.8623,2,2,0.000000 
Leaflet_Instance.8623,3,3,0.000000 
*Boundary,op=NEW,amplitude=Amp-1 
Leaflet_Instance.8624,1,1,0.000000 
Leaflet_Instance.8624,2,2,0.000000 
Leaflet_Instance.8624,3,3,0.000000 
*Boundary,op=NEW,amplitude=Amp-1 
Leaflet_Instance.8625,1,1,0.000000 
Leaflet_Instance.8625,2,2,0.000000 
Leaflet_Instance.8625,3,3,0.000000 
*Boundary,op=NEW,amplitude=Amp-1 
Leaflet_Instance.8626,1,1,0.000000 
Leaflet_Instance.8626,2,2,0.000000 
Leaflet_Instance.8626,3,3,0.000000 
*Boundary,op=NEW,amplitude=Amp-1 
Leaflet_Instance.8627,1,1,0.000000 
Leaflet_Instance.8627,2,2,0.000000 
Leaflet_Instance.8627,3,3,0.000000 
*Boundary,op=NEW,amplitude=Amp-1 
Leaflet_Instance.8628,1,1,0.000000 
Leaflet_Instance.8628,2,2,0.000000 
Leaflet_Instance.8628,3,3,0.000000 
*Boundary,op=NEW,amplitude=Amp-1 
Leaflet_Instance.8629,1,1,0.000000 
Leaflet_Instance.8629,2,2,0.000000 
Leaflet_Instance.8629,3,3,0.000000 
*Boundary,op=NEW,amplitude=Amp-1 
Leaflet_Instance.8630,1,1,0.000000 
Leaflet_Instance.8630,2,2,0.000000 
Leaflet_Instance.8630,3,3,0.000000 
*Boundary,op=NEW,amplitude=Amp-1 
Leaflet_Instance.8631,1,1,0.000000 
Leaflet_Instance.8631,2,2,0.000000 
Leaflet_Instance.8631,3,3,0.000000 
*Boundary,op=NEW,amplitude=Amp-1 
Leaflet_Instance.8632,1,1,0.000000 
Leaflet_Instance.8632,2,2,0.000000 
Leaflet_Instance.8632,3,3,0.000000 
*Boundary,op=NEW,amplitude=Amp-1 
Leaflet_Instance.8633,1,1,0.000000 
Leaflet_Instance.8633,2,2,0.000000 
Leaflet_Instance.8633,3,3,0.000000 
*Boundary,op=NEW,amplitude=Amp-1 
Leaflet_Instance.8634,1,1,0.000000 
Leaflet_Instance.8634,2,2,0.000000 
Leaflet_Instance.8634,3,3,0.000000 
*Boundary,op=NEW,amplitude=Amp-1 
Leaflet_Instance.8635,1,1,0.000000 
Leaflet_Instance.8635,2,2,0.000000 
Leaflet_Instance.8635,3,3,0.000000 
*Boundary,op=NEW,amplitude=Amp-1 
Leaflet_Instance.8636,1,1,0.000000 
Leaflet_Instance.8636,2,2,0.000000 
Leaflet_Instance.8636,3,3,0.000000 
*Boundary,op=NEW,amplitude=Amp-1 
Leaflet_Instance.8637,1,1,0.000000 
Leaflet_Instance.8637,2,2,0.000000 
Leaflet_Instance.8637,3,3,0.000000 
*Boundary,op=NEW,amplitude=Amp-1 
Leaflet_Instance.8638,1,1,0.000000 
Leaflet_Instance.8638,2,2,0.000000 
Leaflet_Instance.8638,3,3,0.000000 
*Boundary,op=NEW,amplitude=Amp-1 
Leaflet_Instance.8639,1,1,0.000000 
Leaflet_Instance.8639,2,2,0.000000 
Leaflet_Instance.8639,3,3,0.000000 
*Boundary,op=NEW,amplitude=Amp-1 
Leaflet_Instance.8640,1,1,0.000000 
Leaflet_Instance.8640,2,2,0.000000 
Leaflet_Instance.8640,3,3,0.000000 
*Boundary,op=NEW,amplitude=Amp-1 
Leaflet_Instance.8641,1,1,0.000000 
Leaflet_Instance.8641,2,2,0.000000 
Leaflet_Instance.8641,3,3,0.000000 
*Boundary,op=NEW,amplitude=Amp-1 
Leaflet_Instance.8642,1,1,0.000000 
Leaflet_Instance.8642,2,2,0.000000 
Leaflet_Instance.8642,3,3,0.000000 
*Boundary,op=NEW,amplitude=Amp-1 
Leaflet_Instance.8643,1,1,0.000000 
Leaflet_Instance.8643,2,2,0.000000 
Leaflet_Instance.8643,3,3,0.000000 
*Boundary,op=NEW,amplitude=Amp-1 
Leaflet_Instance.8644,1,1,0.000000 
Leaflet_Instance.8644,2,2,0.000000 
Leaflet_Instance.8644,3,3,0.000000 
*Boundary,op=NEW,amplitude=Amp-1 
Leaflet_Instance.8645,1,1,0.000000 
Leaflet_Instance.8645,2,2,0.000000 
Leaflet_Instance.8645,3,3,0.000000 
*Boundary,op=NEW,amplitude=Amp-1 
Leaflet_Instance.8646,1,1,0.000000 
Leaflet_Instance.8646,2,2,0.000000 
Leaflet_Instance.8646,3,3,0.000000 
*Boundary,op=NEW,amplitude=Amp-1 
Leaflet_Instance.8647,1,1,0.000000 
Leaflet_Instance.8647,2,2,0.000000 
Leaflet_Instance.8647,3,3,0.000000 
*Boundary,op=NEW,amplitude=Amp-1 
Leaflet_Instance.8648,1,1,0.000000 
Leaflet_Instance.8648,2,2,0.000000 
Leaflet_Instance.8648,3,3,0.000000 
*Boundary,op=NEW,amplitude=Amp-1 
Leaflet_Instance.8649,1,1,0.000000 
Leaflet_Instance.8649,2,2,0.000000 
Leaflet_Instance.8649,3,3,0.000000 
*Boundary,op=NEW,amplitude=Amp-1 
Leaflet_Instance.8650,1,1,0.000000 
Leaflet_Instance.8650,2,2,0.000000 
Leaflet_Instance.8650,3,3,0.000000 
*Boundary,op=NEW,amplitude=Amp-1 
Leaflet_Instance.8651,1,1,0.000000 
Leaflet_Instance.8651,2,2,0.000000 
Leaflet_Instance.8651,3,3,0.000000 
*Boundary,op=NEW,amplitude=Amp-1 
Leaflet_Instance.8652,1,1,0.000000 
Leaflet_Instance.8652,2,2,0.000000 
Leaflet_Instance.8652,3,3,0.000000 
*Boundary,op=NEW,amplitude=Amp-1 
Leaflet_Instance.8653,1,1,0.000000 
Leaflet_Instance.8653,2,2,0.000000 
Leaflet_Instance.8653,3,3,0.000000 
*Boundary,op=NEW,amplitude=Amp-1 
Leaflet_Instance.8654,1,1,0.000000 
Leaflet_Instance.8654,2,2,0.000000 
Leaflet_Instance.8654,3,3,0.000000 
*Boundary,op=NEW,amplitude=Amp-1 
Leaflet_Instance.8655,1,1,0.000000 
Leaflet_Instance.8655,2,2,0.000000 
Leaflet_Instance.8655,3,3,0.000000 
*Boundary,op=NEW,amplitude=Amp-1 
Leaflet_Instance.8656,1,1,0.000000 
Leaflet_Instance.8656,2,2,0.000000 
Leaflet_Instance.8656,3,3,0.000000 
*Boundary,op=NEW,amplitude=Amp-1 
Leaflet_Instance.8657,1,1,0.000000 
Leaflet_Instance.8657,2,2,0.000000 
Leaflet_Instance.8657,3,3,0.000000 
*Boundary,op=NEW,amplitude=Amp-1 
Leaflet_Instance.8658,1,1,0.000000 
Leaflet_Instance.8658,2,2,0.000000 
Leaflet_Instance.8658,3,3,0.000000 
*Boundary,op=NEW,amplitude=Amp-1 
Leaflet_Instance.8659,1,1,0.000000 
Leaflet_Instance.8659,2,2,0.000000 
Leaflet_Instance.8659,3,3,0.000000 
*Boundary,op=NEW,amplitude=Amp-1 
Leaflet_Instance.8660,1,1,0.000000 
Leaflet_Instance.8660,2,2,0.000000 
Leaflet_Instance.8660,3,3,0.000000 
*Boundary,op=NEW,amplitude=Amp-1 
Leaflet_Instance.8661,1,1,0.000000 
Leaflet_Instance.8661,2,2,0.000000 
Leaflet_Instance.8661,3,3,0.000000 
*Boundary,op=NEW,amplitude=Amp-1 
Leaflet_Instance.8662,1,1,0.000000 
Leaflet_Instance.8662,2,2,0.000000 
Leaflet_Instance.8662,3,3,0.000000 
*Boundary,op=NEW,amplitude=Amp-1 
Leaflet_Instance.8663,1,1,0.000000 
Leaflet_Instance.8663,2,2,0.000000 
Leaflet_Instance.8663,3,3,0.000000 
*Boundary,op=NEW,amplitude=Amp-1 
Leaflet_Instance.8664,1,1,0.000000 
Leaflet_Instance.8664,2,2,0.000000 
Leaflet_Instance.8664,3,3,0.000000 
*Boundary,op=NEW,amplitude=Amp-1 
Leaflet_Instance.8665,1,1,0.000000 
Leaflet_Instance.8665,2,2,0.000000 
Leaflet_Instance.8665,3,3,0.000000 
*Boundary,op=NEW,amplitude=Amp-1 
Leaflet_Instance.8666,1,1,0.000000 
Leaflet_Instance.8666,2,2,0.000000 
Leaflet_Instance.8666,3,3,0.000000 
*Boundary,op=NEW,amplitude=Amp-1 
Leaflet_Instance.8667,1,1,0.000000 
Leaflet_Instance.8667,2,2,0.000000 
Leaflet_Instance.8667,3,3,0.000000 
*Boundary,op=NEW,amplitude=Amp-1 
Leaflet_Instance.8668,1,1,0.000000 
Leaflet_Instance.8668,2,2,0.000000 
Leaflet_Instance.8668,3,3,0.000000 
*Boundary,op=NEW,amplitude=Amp-1 
Leaflet_Instance.8669,1,1,0.000000 
Leaflet_Instance.8669,2,2,0.000000 
Leaflet_Instance.8669,3,3,0.000000 
*Boundary,op=NEW,amplitude=Amp-1 
Leaflet_Instance.8670,1,1,0.000000 
Leaflet_Instance.8670,2,2,0.000000 
Leaflet_Instance.8670,3,3,0.000000 
*Boundary,op=NEW,amplitude=Amp-1 
Leaflet_Instance.8671,1,1,0.000000 
Leaflet_Instance.8671,2,2,0.000000 
Leaflet_Instance.8671,3,3,0.000000 
*Boundary,op=NEW,amplitude=Amp-1 
Leaflet_Instance.8672,1,1,0.000000 
Leaflet_Instance.8672,2,2,0.000000 
Leaflet_Instance.8672,3,3,0.000000 
*Boundary,op=NEW,amplitude=Amp-1 
Leaflet_Instance.8673,1,1,0.000000 
Leaflet_Instance.8673,2,2,0.000000 
Leaflet_Instance.8673,3,3,0.000000 
*Boundary,op=NEW,amplitude=Amp-1 
Leaflet_Instance.8674,1,1,0.000000 
Leaflet_Instance.8674,2,2,0.000000 
Leaflet_Instance.8674,3,3,0.000000 
*Boundary,op=NEW,amplitude=Amp-1 
Leaflet_Instance.8675,1,1,0.000000 
Leaflet_Instance.8675,2,2,0.000000 
Leaflet_Instance.8675,3,3,0.000000 
*Boundary,op=NEW,amplitude=Amp-1 
Leaflet_Instance.8676,1,1,0.000000 
Leaflet_Instance.8676,2,2,0.000000 
Leaflet_Instance.8676,3,3,0.000000 
*Boundary,op=NEW,amplitude=Amp-1 
Leaflet_Instance.8677,1,1,0.000000 
Leaflet_Instance.8677,2,2,0.000000 
Leaflet_Instance.8677,3,3,0.000000 
*Boundary,op=NEW,amplitude=Amp-1 
Leaflet_Instance.8678,1,1,0.000000 
Leaflet_Instance.8678,2,2,0.000000 
Leaflet_Instance.8678,3,3,0.000000 
*Boundary,op=NEW,amplitude=Amp-1 
Leaflet_Instance.8679,1,1,0.000000 
Leaflet_Instance.8679,2,2,0.000000 
Leaflet_Instance.8679,3,3,0.000000 
*Boundary,op=NEW,amplitude=Amp-1 
Leaflet_Instance.8680,1,1,0.000000 
Leaflet_Instance.8680,2,2,0.000000 
Leaflet_Instance.8680,3,3,0.000000 
*Boundary,op=NEW,amplitude=Amp-1 
Leaflet_Instance.8681,1,1,0.000000 
Leaflet_Instance.8681,2,2,0.000000 
Leaflet_Instance.8681,3,3,0.000000 
*Boundary,op=NEW,amplitude=Amp-1 
Leaflet_Instance.8682,1,1,0.000000 
Leaflet_Instance.8682,2,2,0.000000 
Leaflet_Instance.8682,3,3,0.000000 
*Boundary,op=NEW,amplitude=Amp-1 
Leaflet_Instance.8683,1,1,0.000000 
Leaflet_Instance.8683,2,2,0.000000 
Leaflet_Instance.8683,3,3,0.000000 
*Boundary,op=NEW,amplitude=Amp-1 
Leaflet_Instance.8684,1,1,0.000000 
Leaflet_Instance.8684,2,2,0.000000 
Leaflet_Instance.8684,3,3,0.000000 
*Boundary,op=NEW,amplitude=Amp-1 
Leaflet_Instance.8685,1,1,0.000000 
Leaflet_Instance.8685,2,2,0.000000 
Leaflet_Instance.8685,3,3,0.000000 
*Boundary,op=NEW,amplitude=Amp-2 
Leaflet_Instance.10884,1,1,0.000000 
Leaflet_Instance.10884,2,2,0.000000 
Leaflet_Instance.10884,3,3,-4.000000 
*Boundary,op=NEW,amplitude=Amp-2 
Leaflet_Instance.10894,1,1,0.000000 
Leaflet_Instance.10894,2,2,0.000000 
Leaflet_Instance.10894,3,3,-4.000000 
*Boundary,op=NEW,amplitude=Amp-2 
Leaflet_Instance.10904,1,1,0.000000 
Leaflet_Instance.10904,2,2,0.000000 
Leaflet_Instance.10904,3,3,-4.000000 
*Boundary,op=NEW,amplitude=Amp-2 
Leaflet_Instance.12480,1,1,0.000000 
Leaflet_Instance.12480,2,2,0.000000 
Leaflet_Instance.12480,3,3,-4.000000 
*Boundary,op=NEW,amplitude=Amp-2 
Leaflet_Instance.12489,1,1,0.000000 
Leaflet_Instance.12489,2,2,0.000000 
Leaflet_Instance.12489,3,3,-4.000000 
*Boundary,op=NEW,amplitude=Amp-2 
Leaflet_Instance.12498,1,1,0.000000 
Leaflet_Instance.12498,2,2,0.000000 
Leaflet_Instance.12498,3,3,-4.000000 
*Boundary,op=NEW,amplitude=Amp-2 
Leaflet_Instance.12507,1,1,0.000000 
Leaflet_Instance.12507,2,2,0.000000 
Leaflet_Instance.12507,3,3,-4.000000 
*Boundary,op=NEW,amplitude=Amp-2 
Leaflet_Instance.12516,1,1,0.000000 
Leaflet_Instance.12516,2,2,0.000000 
Leaflet_Instance.12516,3,3,-4.000000 
*Boundary,op=NEW,amplitude=Amp-2 
Leaflet_Instance.12525,1,1,0.000000 
Leaflet_Instance.12525,2,2,0.000000 
Leaflet_Instance.12525,3,3,-4.000000 
*Boundary,op=NEW,amplitude=Amp-2 
Leaflet_Instance.12534,1,1,0.000000 
Leaflet_Instance.12534,2,2,0.000000 
Leaflet_Instance.12534,3,3,-4.000000 
*Boundary,op=NEW,amplitude=Amp-2 
Leaflet_Instance.12543,1,1,0.000000 
Leaflet_Instance.12543,2,2,0.000000 
Leaflet_Instance.12543,3,3,-4.000000 
*Boundary,op=NEW,amplitude=Amp-2 
Leaflet_Instance.12552,1,1,0.000000 
Leaflet_Instance.12552,2,2,0.000000 
Leaflet_Instance.12552,3,3,-4.000000 
*Boundary,op=NEW,amplitude=Amp-2 
Leaflet_Instance.12561,1,1,0.000000 
Leaflet_Instance.12561,2,2,0.000000 
Leaflet_Instance.12561,3,3,-4.000000 
*Boundary,op=NEW,amplitude=Amp-2 
Leaflet_Instance.12570,1,1,0.000000 
Leaflet_Instance.12570,2,2,0.000000 
Leaflet_Instance.12570,3,3,-4.000000 
*Boundary,op=NEW,amplitude=Amp-2 
Leaflet_Instance.12579,1,1,0.000000 
Leaflet_Instance.12579,2,2,0.000000 
Leaflet_Instance.12579,3,3,-4.000000 
*Boundary,op=NEW,amplitude=Amp-2 
Leaflet_Instance.12588,1,1,0.000000 
Leaflet_Instance.12588,2,2,0.000000 
Leaflet_Instance.12588,3,3,-4.000000 
*Boundary,op=NEW,amplitude=Amp-2 
Leaflet_Instance.12597,1,1,0.000000 
Leaflet_Instance.12597,2,2,0.000000 
Leaflet_Instance.12597,3,3,-4.000000 
*Boundary,op=NEW,amplitude=Amp-2 
Leaflet_Instance.12606,1,1,0.000000 
Leaflet_Instance.12606,2,2,0.000000 
Leaflet_Instance.12606,3,3,-4.000000 
*Boundary,op=NEW,amplitude=Amp-2 
Leaflet_Instance.12615,1,1,0.000000 
Leaflet_Instance.12615,2,2,0.000000 
Leaflet_Instance.12615,3,3,-4.000000 
*Boundary,op=NEW,amplitude=Amp-2 
Leaflet_Instance.12624,1,1,0.000000 
Leaflet_Instance.12624,2,2,0.000000 
Leaflet_Instance.12624,3,3,-4.000000 
*Boundary,op=NEW,amplitude=Amp-2 
Leaflet_Instance.12633,1,1,0.000000 
Leaflet_Instance.12633,2,2,0.000000 
Leaflet_Instance.12633,3,3,-4.000000 
*Boundary,op=NEW,amplitude=Amp-2 
Leaflet_Instance.12642,1,1,0.000000 
Leaflet_Instance.12642,2,2,0.000000 
Leaflet_Instance.12642,3,3,-4.000000 
*Boundary,op=NEW,amplitude=Amp-2 
Leaflet_Instance.12651,1,1,0.000000 
Leaflet_Instance.12651,2,2,0.000000 
Leaflet_Instance.12651,3,3,-4.000000 
*Boundary,op=NEW,amplitude=Amp-2 
Leaflet_Instance.12660,1,1,0.000000 
Leaflet_Instance.12660,2,2,0.000000 
Leaflet_Instance.12660,3,3,-4.000000 
*Boundary,op=NEW,amplitude=Amp-2 
Leaflet_Instance.12669,1,1,0.000000 
Leaflet_Instance.12669,2,2,0.000000 
Leaflet_Instance.12669,3,3,-4.000000 
*Boundary,op=NEW,amplitude=Amp-2 
Leaflet_Instance.12678,1,1,0.000000 
Leaflet_Instance.12678,2,2,0.000000 
Leaflet_Instance.12678,3,3,-4.000000 
*Boundary,op=NEW,amplitude=Amp-2 
Leaflet_Instance.12687,1,1,0.000000 
Leaflet_Instance.12687,2,2,0.000000 
Leaflet_Instance.12687,3,3,-4.000000 
*Boundary,op=NEW,amplitude=Amp-2 
Leaflet_Instance.12696,1,1,0.000000 
Leaflet_Instance.12696,2,2,0.000000 
Leaflet_Instance.12696,3,3,-4.000000 
*Boundary,op=NEW,amplitude=Amp-2 
Leaflet_Instance.12705,1,1,0.000000 
Leaflet_Instance.12705,2,2,0.000000 
Leaflet_Instance.12705,3,3,-4.000000 
*Boundary,op=NEW,amplitude=Amp-2 
Leaflet_Instance.12714,1,1,0.000000 
Leaflet_Instance.12714,2,2,0.000000 
Leaflet_Instance.12714,3,3,-4.000000 
*Boundary,op=NEW,amplitude=Amp-2 
Leaflet_Instance.12723,1,1,0.000000 
Leaflet_Instance.12723,2,2,0.000000 
Leaflet_Instance.12723,3,3,-4.000000 
*Boundary,op=NEW,amplitude=Amp-2 
Leaflet_Instance.12732,1,1,0.000000 
Leaflet_Instance.12732,2,2,0.000000 
Leaflet_Instance.12732,3,3,-4.000000 
*Dsload,op=NEW,amplitude=Amp-1 
Leaflet_Surfaces, P, 0.005670
*Contact, op=NEW
*Contact Inclusions
LEAFLET_SURFACES, 
*Contact Property Assignment
 ,  , INTERACTION_PROPERTY
*Output, field, variable=PRESELECT 
*ELEMENT OUTPUT, ELSET=LEAFLET_INSTANCE.LEAFLET_ELEMENTS 
1,5 
S,LE,STH,COORD 
*NODE OUTPUT, NSET=LEAFLET_INSTANCE.LEAFLET_NODES
COORD 
*CONTACT OUTPUT
CFORCE,CSTRESS,CTHICK
*Output, history, variable=PRESELECT 
*End Step
